@<TRIPOS>MOLECULE
UD2
 46 48 0 0 0
SMALL
GASTEIGER

@<TRIPOS>ATOM
      1 P          22.2603   71.2508   -2.9399 P.3     1  UNL1        0.2189
      2 O          21.9043   69.6845   -3.0472 O.3     1  UNL1       -0.4371
      3 O          23.4403   71.5479   -3.7815 O.2     1  UNL1       -0.5170
      4 O          21.0051   72.1223   -3.4484 O.3     1  UNL1       -0.3112
      5 C          19.9570   72.5558   -2.5795 C.3     1  UNL1        0.1811
      6 C          17.8208   71.4606   -5.2579 C.3     1  UNL1        0.2383
      7 C          17.9703   70.2169   -4.3453 C.3     1  UNL1        0.1895
      8 O          16.7963   69.4039   -4.3947 O.3     1  UNL1       -0.3779
      9 C          18.1393   70.8585   -2.9462 C.3     1  UNL1        0.1713
     10 C          18.6032   72.2969   -3.2452 C.3     1  UNL1        0.1764
     11 O          18.7285   72.4184   -4.6710 O.3     1  UNL1       -0.3308
     12 O          16.8928   70.8693   -2.2485 O.3     1  UNL1       -0.3794
     13 H          16.8416   68.6131   -3.8405 H       1  UNL1        0.2106
     14 H          16.5247   69.9904   -2.0856 H       1  UNL1        0.2105
     15 N          18.2210   71.1441   -6.6308 N.ar    1  UNL1       -0.2551
     16 C          17.2859   70.8055   -7.5362 C.ar    1  UNL1        0.3323
     17 N          17.6251   70.5094   -8.8048 N.ar    1  UNL1       -0.2743
     18 C          18.9171   70.5504   -9.1892 C.ar    1  UNL1        0.2626
     19 C          19.9117   70.9063   -8.2467 C.ar    1  UNL1        0.0795
     20 C          19.5427   71.2022   -6.9827 C.ar    1  UNL1        0.0869
     21 O          16.1171   70.7646   -7.2037 O.2     1  UNL1       -0.2464
     22 O          19.2253   70.2831  -10.3372 O.2     1  UNL1       -0.2670
     23 H          16.9384   70.2660   -9.4447 H       1  UNL1        0.1734
     24 O          22.5861   71.6236   -1.4075 O.3     1  UNL1       -0.2703
     25 P          22.4438   70.8352   -0.0107 P.3     1  UNL1        0.2208
     26 O          21.0270   70.0707    0.0316 O.3     1  UNL1       -0.4371
     27 O          23.5396   69.8492    0.1135 O.2     1  UNL1       -0.5170
     28 O          22.5246   71.8843    1.2082 O.3     1  UNL1       -0.2865
     29 C          21.5938   72.9551    1.3766 C.3     1  UNL1        0.2611
     30 C          22.2822   74.2852    1.0608 C.3     1  UNL1        0.1582
     31 C          23.4286   74.5050    2.0527 C.3     1  UNL1        0.1625
     32 C          22.8710   74.4641    3.4781 C.3     1  UNL1        0.1686
     33 C          22.1597   73.1267    3.7008 C.3     1  UNL1        0.1760
     34 O          24.0305   75.7790    1.8117 O.3     1  UNL1       -0.3801
     35 O          21.9428   75.5352    3.6588 O.3     1  UNL1       -0.3794
     36 O          21.1258   72.9710    2.7268 O.3     1  UNL1       -0.3263
     37 H          24.7662   75.9845    2.4048 H       1  UNL1        0.2105
     38 H          21.5484   75.5701    4.5416 H       1  UNL1        0.2105
     39 C          22.3601   75.1162   -1.2285 C.2     1  UNL1        0.2231
     40 C          22.9079   75.0792   -2.6311 C.3     1  UNL1        0.0946
     41 N          22.8154   74.2485   -0.3033 N.am    1  UNL1       -0.2994
     42 O          21.5084   75.9275   -0.9309 O.2     1  UNL1       -0.2751
     43 H          23.4956   73.5990   -0.5411 H       1  UNL1        0.1496
     44 C          21.5481   73.1019    5.1028 C.3     1  UNL1        0.1693
     45 O          22.5864   73.2144    6.0784 O.3     1  UNL1       -0.3794
     46 H          22.2707   73.2055    6.9923 H       1  UNL1        0.2105
@<TRIPOS>BOND
     1    29    30    1
     2    30    41    1
     3    30    31    1
     4    31    34    1
     5    31    32    1
     6    32    35    1
     7    32    33    1
     8    33    36    1
     9    33    44    1
    10    39    40    1
    11    39    42    2
    12    39    41   am
    13    41    43    1
    14    29    28    1
    15    34    37    1
    16    35    38    1
    17    29    36    1
    18    44    45    1
    19    45    46    1
    20    15     6    1
    21    15    16   ar
    22    16    21    2
    23    16    17   ar
    24    17    23    1
    25    17    18   ar
    26    18    19   ar
    27    19    20   ar
    28    15    20   ar
    29    18    22    2
    30     6     7    1
    31     6    11    1
    32     7     9    1
    33     7     8    1
    34     8    13    1
    35     9    10    1
    36     9    12    1
    37    10     5    1
    38    10    11    1
    39    12    14    1
    40     5     4    1
    41     4     1    1
    42     1     2    1
    43     1    24    1
    44     1     3    2
    45    24    25    1
    46    28    25    1
    47    25    26    1
    48    25    27    2
@<TRIPOS>MOLECULE
UD2
 46 48 0 0 0
SMALL
GASTEIGER

@<TRIPOS>ATOM
      1 P          21.9002   70.5668   -0.1844 P.3     1  UNL1        0.2189
      2 O          21.9510   69.1086    0.4957 O.3     1  UNL1       -0.4371
      3 O          23.1643   70.8171   -0.9113 O.2     1  UNL1       -0.5170
      4 O          20.6653   70.6348   -1.2160 O.3     1  UNL1       -0.3112
      5 C          20.7851   71.1640   -2.5378 C.3     1  UNL1        0.1811
      6 C          18.2893   71.1613   -5.1276 C.3     1  UNL1        0.2383
      7 C          18.0767   69.8204   -4.3801 C.3     1  UNL1        0.1895
      8 O          16.7037   69.4263   -4.4200 O.3     1  UNL1       -0.3779
      9 C          18.5062   70.1809   -2.9369 C.3     1  UNL1        0.1713
     10 C          19.3900   71.4311   -3.1082 C.3     1  UNL1        0.1764
     11 O          19.4812   71.7009   -4.5162 O.3     1  UNL1       -0.3308
     12 O          17.3620   70.4825   -2.1365 O.3     1  UNL1       -0.3794
     13 H          16.5202   68.5927   -3.9661 H       1  UNL1        0.2106
     14 H          16.7409   69.7476   -2.0440 H       1  UNL1        0.2105
     15 N          18.5034   70.9266   -6.5573 N.ar    1  UNL1       -0.2551
     16 C          17.4455   70.8174   -7.3805 C.ar    1  UNL1        0.3323
     17 N          17.6127   70.6014   -8.6987 N.ar    1  UNL1       -0.2743
     18 C          18.8530   70.4925   -9.2166 C.ar    1  UNL1        0.2626
     19 C          19.9757   70.6064   -8.3618 C.ar    1  UNL1        0.0795
     20 C          19.7787   70.8271   -7.0450 C.ar    1  UNL1        0.0869
     21 O          16.3213   70.9137   -6.9274 O.2     1  UNL1       -0.2464
     22 O          19.0058   70.2974  -10.4096 O.2     1  UNL1       -0.2670
     23 H          16.8390   70.5240   -9.2779 H       1  UNL1        0.1734
     24 O          21.7068   71.6855    0.9576 O.3     1  UNL1       -0.2703
     25 P          21.5928   73.2917    0.9412 P.3     1  UNL1        0.2208
     26 O          22.7778   73.9040    0.0386 O.3     1  UNL1       -0.4371
     27 O          20.2857   73.6880    0.3732 O.2     1  UNL1       -0.5170
     28 O          21.7177   73.8539    2.4449 O.3     1  UNL1       -0.2865
     29 C          22.5957   73.2852    3.4181 C.3     1  UNL1        0.2611
     30 C          22.1549   73.7175    4.8187 C.3     1  UNL1        0.1582
     31 C          22.2612   75.2415    4.9304 C.3     1  UNL1        0.1625
     32 C          23.6984   75.6665    4.6172 C.3     1  UNL1        0.1686
     33 C          24.0798   75.1591    3.2240 C.3     1  UNL1        0.1760
     34 O          21.9217   75.6474    6.2583 O.3     1  UNL1       -0.3801
     35 O          24.5844   75.1074    5.5887 O.3     1  UNL1       -0.3794
     36 O          23.9295   73.7387    3.1785 O.3     1  UNL1       -0.3263
     37 H          21.9670   76.6029    6.4007 H       1  UNL1        0.2105
     38 H          25.5144   75.3356    5.4513 H       1  UNL1        0.2105
     39 C          19.7586   74.1572    4.7716 C.2     1  UNL1        0.2231
     40 C          18.3315   73.7346    5.0024 C.3     1  UNL1        0.0946
     41 N          20.7670   73.3056    5.0437 N.am    1  UNL1       -0.2994
     42 O          20.0011   75.2652    4.3404 O.2     1  UNL1       -0.2751
     43 H          20.5736   72.4201    5.3894 H       1  UNL1        0.1496
     44 C          25.5345   75.5282    2.9275 C.3     1  UNL1        0.1693
     45 O          25.6572   75.9237    1.5598 O.3     1  UNL1       -0.3794
     46 H          26.5550   76.1721    1.3006 H       1  UNL1        0.2105
@<TRIPOS>BOND
     1    29    30    1
     2    30    41    1
     3    30    31    1
     4    31    34    1
     5    31    32    1
     6    32    35    1
     7    32    33    1
     8    33    36    1
     9    33    44    1
    10    39    40    1
    11    39    42    2
    12    39    41   am
    13    41    43    1
    14    29    28    1
    15    34    37    1
    16    35    38    1
    17    29    36    1
    18    44    45    1
    19    45    46    1
    20    15     6    1
    21    15    16   ar
    22    16    21    2
    23    16    17   ar
    24    17    23    1
    25    17    18   ar
    26    18    19   ar
    27    19    20   ar
    28    15    20   ar
    29    18    22    2
    30     6     7    1
    31     6    11    1
    32     7     9    1
    33     7     8    1
    34     8    13    1
    35     9    10    1
    36     9    12    1
    37    10     5    1
    38    10    11    1
    39    12    14    1
    40     5     4    1
    41     4     1    1
    42     1     2    1
    43     1    24    1
    44     1     3    2
    45    24    25    1
    46    28    25    1
    47    25    26    1
    48    25    27    2
@<TRIPOS>MOLECULE
UD2
 46 48 0 0 0
SMALL
GASTEIGER

@<TRIPOS>ATOM
      1 P          22.8943   72.0378   -3.3500 P.3     1  UNL1        0.2189
      2 O          23.4692   70.5349   -3.3038 O.3     1  UNL1       -0.4371
      3 O          23.5886   72.7998   -4.4112 O.2     1  UNL1       -0.5170
      4 O          21.3150   71.9987   -3.6630 O.3     1  UNL1       -0.3112
      5 C          20.3186   72.0505   -2.6403 C.3     1  UNL1        0.1811
      6 C          18.0112   71.3269   -5.3028 C.3     1  UNL1        0.2383
      7 C          18.0407   70.0329   -4.4504 C.3     1  UNL1        0.1895
      8 O          16.7818   69.3590   -4.5024 O.3     1  UNL1       -0.3779
      9 C          18.3133   70.5853   -3.0298 C.3     1  UNL1        0.1713
     10 C          18.9292   71.9755   -3.2782 C.3     1  UNL1        0.1764
     11 O          19.0343   72.1490   -4.7003 O.3     1  UNL1       -0.3308
     12 O          17.0925   70.7022   -2.2973 O.3     1  UNL1       -0.3794
     13 H          16.7506   68.5429   -3.9850 H       1  UNL1        0.2106
     14 H          16.6316   69.8632   -2.1629 H       1  UNL1        0.2105
     15 N          18.3412   71.0325   -6.6990 N.ar    1  UNL1       -0.2551
     16 C          17.3555   70.7715   -7.5760 C.ar    1  UNL1        0.3323
     17 N          17.6298   70.4975   -8.8652 N.ar    1  UNL1       -0.2743
     18 C          18.9065   70.4826   -9.2992 C.ar    1  UNL1        0.2626
     19 C          19.9539   70.7567   -8.3871 C.ar    1  UNL1        0.0795
     20 C          19.6497   71.0323   -7.1014 C.ar    1  UNL1        0.0869
     21 O          16.1997   70.7816   -7.1988 O.2     1  UNL1       -0.2464
     22 O          19.1560   70.2352  -10.4658 O.2     1  UNL1       -0.2670
     23 H          16.9072   70.3102   -9.4840 H       1  UNL1        0.1734
     24 O          23.1413   72.7511   -1.9275 O.3     1  UNL1       -0.2703
     25 P          23.2779   74.2842   -1.4545 P.3     1  UNL1        0.2208
     26 O          24.7435   74.8338   -1.8338 O.3     1  UNL1       -0.4371
     27 O          22.2526   75.1043   -2.1361 O.2     1  UNL1       -0.5170
     28 O          23.0661   74.3750    0.1391 O.3     1  UNL1       -0.2865
     29 C          21.8033   74.1557    0.7703 C.3     1  UNL1        0.2611
     30 C          21.9276   74.4290    2.2712 C.3     1  UNL1        0.1582
     31 C          22.9293   73.4427    2.8797 C.3     1  UNL1        0.1625
     32 C          22.4647   72.0136    2.5865 C.3     1  UNL1        0.1686
     33 C          22.3196   71.8333    1.0731 C.3     1  UNL1        0.1760
     34 O          22.9968   73.6424    4.2935 O.3     1  UNL1       -0.3801
     35 O          21.2044   71.7819    3.2185 O.3     1  UNL1       -0.3794
     36 O          21.3981   72.8006    0.5660 O.3     1  UNL1       -0.3263
     37 H          23.6142   73.0506    4.7449 H       1  UNL1        0.2105
     38 H          20.8485   70.8940    3.0740 H       1  UNL1        0.2105
     39 C          21.6426   76.6762    3.1691 C.2     1  UNL1        0.2231
     40 C          22.1282   78.0854    3.3859 C.3     1  UNL1        0.0946
     41 N          22.4006   75.7996    2.4814 N.am    1  UNL1       -0.2994
     42 O          20.5681   76.3296    3.6137 O.2     1  UNL1       -0.2751
     43 H          23.2593   76.0766    2.1250 H       1  UNL1        0.1496
     44 C          21.7983   70.4263    0.7749 C.3     1  UNL1        0.1693
     45 O          22.8594   69.4816    0.9299 O.3     1  UNL1       -0.3794
     46 H          22.6004   68.5663    0.7560 H       1  UNL1        0.2105
@<TRIPOS>BOND
     1    29    30    1
     2    30    41    1
     3    30    31    1
     4    31    34    1
     5    31    32    1
     6    32    35    1
     7    32    33    1
     8    33    36    1
     9    33    44    1
    10    39    40    1
    11    39    42    2
    12    39    41   am
    13    41    43    1
    14    29    28    1
    15    34    37    1
    16    35    38    1
    17    29    36    1
    18    44    45    1
    19    45    46    1
    20    15     6    1
    21    15    16   ar
    22    16    21    2
    23    16    17   ar
    24    17    23    1
    25    17    18   ar
    26    18    19   ar
    27    19    20   ar
    28    15    20   ar
    29    18    22    2
    30     6     7    1
    31     6    11    1
    32     7     9    1
    33     7     8    1
    34     8    13    1
    35     9    10    1
    36     9    12    1
    37    10     5    1
    38    10    11    1
    39    12    14    1
    40     5     4    1
    41     4     1    1
    42     1     2    1
    43     1    24    1
    44     1     3    2
    45    24    25    1
    46    28    25    1
    47    25    26    1
    48    25    27    2
@<TRIPOS>MOLECULE
UD2
 46 48 0 0 0
SMALL
GASTEIGER

@<TRIPOS>ATOM
      1 P          22.8866   72.1744   -3.2468 P.3     1  UNL1        0.2189
      2 O          23.4866   70.6824   -3.1742 O.3     1  UNL1       -0.4371
      3 O          23.5845   72.9365   -4.3056 O.2     1  UNL1       -0.5170
      4 O          21.3134   72.1041   -3.5843 O.3     1  UNL1       -0.3112
      5 C          20.3087   71.9573   -2.5791 C.3     1  UNL1        0.1811
      6 C          18.0072   71.3587   -5.2775 C.3     1  UNL1        0.2383
      7 C          17.9619   70.0609   -4.4316 C.3     1  UNL1        0.1895
      8 O          16.6728   69.4490   -4.5047 O.3     1  UNL1       -0.3779
      9 C          18.2407   70.5929   -3.0044 C.3     1  UNL1        0.1713
     10 C          18.9265   71.9527   -3.2368 C.3     1  UNL1        0.1764
     11 O          19.0602   72.1274   -4.6564 O.3     1  UNL1       -0.3308
     12 O          17.0166   70.7655   -2.2885 O.3     1  UNL1       -0.3794
     13 H          16.5947   68.6330   -3.9921 H       1  UNL1        0.2106
     14 H          16.5138   69.9492   -2.1650 H       1  UNL1        0.2105
     15 N          18.3424   71.0551   -6.6705 N.ar    1  UNL1       -0.2551
     16 C          17.3587   70.8135   -7.5552 C.ar    1  UNL1        0.3323
     17 N          17.6378   70.5316   -8.8417 N.ar    1  UNL1       -0.2743
     18 C          18.9175   70.4890   -9.2650 C.ar    1  UNL1        0.2626
     19 C          19.9629   70.7423   -8.3446 C.ar    1  UNL1        0.0795
     20 C          19.6539   71.0264   -7.0619 C.ar    1  UNL1        0.0869
     21 O          16.2003   70.8487   -7.1876 O.2     1  UNL1       -0.2464
     22 O          19.1714   70.2344  -10.4291 O.2     1  UNL1       -0.2670
     23 H          16.9165   70.3587   -9.4662 H       1  UNL1        0.1734
     24 O          23.0983   72.9078   -1.8289 O.3     1  UNL1       -0.2703
     25 P          22.9539   74.4305   -1.3254 P.3     1  UNL1        0.2208
     26 O          24.3526   75.2003   -1.5375 O.3     1  UNL1       -0.4371
     27 O          21.8949   75.1095   -2.1038 O.2     1  UNL1       -0.5170
     28 O          22.5647   74.4444    0.2370 O.3     1  UNL1       -0.2865
     29 C          23.3378   73.7795    1.2377 C.3     1  UNL1        0.2611
     30 C          22.5036   72.6627    1.8700 C.3     1  UNL1        0.1582
     31 C          21.2814   73.2777    2.5588 C.3     1  UNL1        0.1625
     32 C          21.7537   74.3050    3.5912 C.3     1  UNL1        0.1686
     33 C          22.6170   75.3587    2.8924 C.3     1  UNL1        0.1760
     34 O          20.5356   72.2496    3.2146 O.3     1  UNL1       -0.3801
     35 O          22.5235   73.6488    4.6003 O.3     1  UNL1       -0.3794
     36 O          23.7186   74.7175    2.2464 O.3     1  UNL1       -0.3263
     37 H          19.7455   72.5683    3.6721 H       1  UNL1        0.2105
     38 H          22.8567   74.2410    5.2890 H       1  UNL1        0.2105
     39 C          22.4759   70.4499    0.8501 C.2     1  UNL1        0.2231
     40 C          22.0221   69.4925   -0.2205 C.3     1  UNL1        0.0946
     41 N          22.0620   71.7322    0.8281 N.am    1  UNL1       -0.2994
     42 O          23.2147   70.0669    1.7331 O.2     1  UNL1       -0.2751
     43 H          21.4721   72.0390    0.1218 H       1  UNL1        0.1496
     44 C          23.1421   76.3555    3.9273 C.3     1  UNL1        0.1693
     45 O          24.2732   77.0466    3.3931 O.3     1  UNL1       -0.3794
     46 H          24.6590   77.6962    3.9966 H       1  UNL1        0.2105
@<TRIPOS>BOND
     1    29    30    1
     2    30    41    1
     3    30    31    1
     4    31    34    1
     5    31    32    1
     6    32    35    1
     7    32    33    1
     8    33    36    1
     9    33    44    1
    10    39    40    1
    11    39    42    2
    12    39    41   am
    13    41    43    1
    14    29    28    1
    15    34    37    1
    16    35    38    1
    17    29    36    1
    18    44    45    1
    19    45    46    1
    20    15     6    1
    21    15    16   ar
    22    16    21    2
    23    16    17   ar
    24    17    23    1
    25    17    18   ar
    26    18    19   ar
    27    19    20   ar
    28    15    20   ar
    29    18    22    2
    30     6     7    1
    31     6    11    1
    32     7     9    1
    33     7     8    1
    34     8    13    1
    35     9    10    1
    36     9    12    1
    37    10     5    1
    38    10    11    1
    39    12    14    1
    40     5     4    1
    41     4     1    1
    42     1     2    1
    43     1    24    1
    44     1     3    2
    45    24    25    1
    46    28    25    1
    47    25    26    1
    48    25    27    2
@<TRIPOS>MOLECULE
UD2
 46 48 0 0 0
SMALL
GASTEIGER

@<TRIPOS>ATOM
      1 P          21.9512   70.6894   -0.4722 P.3     1  UNL1        0.2189
      2 O          21.6881   69.5432    0.6271 O.3     1  UNL1       -0.4371
      3 O          23.1479   70.3430   -1.2702 O.2     1  UNL1       -0.5170
      4 O          20.6724   70.8039   -1.4444 O.3     1  UNL1       -0.3112
      5 C          20.7181   71.4555   -2.7151 C.3     1  UNL1        0.1811
      6 C          18.2318   71.1363   -5.2945 C.3     1  UNL1        0.2383
      7 C          18.1650   69.7951   -4.5207 C.3     1  UNL1        0.1895
      8 O          16.8419   69.2562   -4.5475 O.3     1  UNL1       -0.3779
      9 C          18.5564   70.2273   -3.0863 C.3     1  UNL1        0.1713
     10 C          19.3014   71.5611   -3.2851 C.3     1  UNL1        0.1764
     11 O          19.3605   71.8117   -4.6983 O.3     1  UNL1       -0.3308
     12 O          17.3881   70.4207   -2.2873 O.3     1  UNL1       -0.3794
     13 H          16.7492   68.4167   -4.0771 H       1  UNL1        0.2106
     14 H          16.8491   69.6257   -2.1783 H       1  UNL1        0.2105
     15 N          18.4671   70.8980   -6.7203 N.ar    1  UNL1       -0.2551
     16 C          17.4211   70.7492   -7.5526 C.ar    1  UNL1        0.3323
     17 N          17.6077   70.5290   -8.8674 N.ar    1  UNL1       -0.2743
     18 C          18.8559   70.4557   -9.3728 C.ar    1  UNL1        0.2626
     19 C          19.9661   70.6115   -8.5084 C.ar    1  UNL1        0.0795
     20 C          19.7495   70.8355   -7.1953 C.ar    1  UNL1        0.0869
     21 O          16.2901   70.8130   -7.1107 O.2     1  UNL1       -0.2464
     22 O          19.0262   70.2569  -10.5628 O.2     1  UNL1       -0.2670
     23 H          16.8425   70.4227   -9.4533 H       1  UNL1        0.1734
     24 O          22.1894   72.0993    0.2685 O.3     1  UNL1       -0.2703
     25 P          21.6454   72.7485    1.6381 P.3     1  UNL1        0.2208
     26 O          20.5023   73.8317    1.3010 O.3     1  UNL1       -0.4371
     27 O          21.0790   71.6857    2.4972 O.2     1  UNL1       -0.5170
     28 O          22.8602   73.4717    2.4086 O.3     1  UNL1       -0.2865
     29 C          22.7929   74.8202    2.8758 C.3     1  UNL1        0.2611
     30 C          24.1942   75.2968    3.2655 C.3     1  UNL1        0.1582
     31 C          24.7167   74.4315    4.4164 C.3     1  UNL1        0.1625
     32 C          23.7316   74.5075    5.5861 C.3     1  UNL1        0.1686
     33 C          22.3477   74.0611    5.1067 C.3     1  UNL1        0.1760
     34 O          25.9944   74.9161    4.8358 O.3     1  UNL1       -0.3801
     35 O          23.6611   75.8518    6.0647 O.3     1  UNL1       -0.3794
     36 O          21.9340   74.8865    4.0161 O.3     1  UNL1       -0.3263
     37 H          26.3860   74.4131    5.5631 H       1  UNL1        0.2105
     38 H          23.0534   75.9743    6.8074 H       1  UNL1        0.2105
     39 C          25.9975   76.1373    1.8585 C.2     1  UNL1        0.2231
     40 C          26.9200   76.0108    0.6747 C.3     1  UNL1        0.0946
     41 N          25.0910   75.1732    2.1136 N.am    1  UNL1       -0.2994
     42 O          26.0700   77.1076    2.5834 O.2     1  UNL1       -0.2751
     43 H          25.0321   74.3977    1.5338 H       1  UNL1        0.1496
     44 C          21.3444   74.1909    6.2543 C.3     1  UNL1        0.1693
     45 O          22.0324   74.0924    7.5030 O.3     1  UNL1       -0.3794
     46 H          21.4570   74.1662    8.2766 H       1  UNL1        0.2105
@<TRIPOS>BOND
     1    29    30    1
     2    30    41    1
     3    30    31    1
     4    31    34    1
     5    31    32    1
     6    32    35    1
     7    32    33    1
     8    33    36    1
     9    33    44    1
    10    39    40    1
    11    39    42    2
    12    39    41   am
    13    41    43    1
    14    29    28    1
    15    34    37    1
    16    35    38    1
    17    29    36    1
    18    44    45    1
    19    45    46    1
    20    15     6    1
    21    15    16   ar
    22    16    21    2
    23    16    17   ar
    24    17    23    1
    25    17    18   ar
    26    18    19   ar
    27    19    20   ar
    28    15    20   ar
    29    18    22    2
    30     6     7    1
    31     6    11    1
    32     7     9    1
    33     7     8    1
    34     8    13    1
    35     9    10    1
    36     9    12    1
    37    10     5    1
    38    10    11    1
    39    12    14    1
    40     5     4    1
    41     4     1    1
    42     1     2    1
    43     1    24    1
    44     1     3    2
    45    24    25    1
    46    28    25    1
    47    25    26    1
    48    25    27    2
@<TRIPOS>MOLECULE
UD2
 46 48 0 0 0
SMALL
GASTEIGER

@<TRIPOS>ATOM
      1 P          21.9795   70.7851   -2.7852 P.3     1  UNL1        0.2189
      2 O          23.5391   70.6764   -3.1690 O.3     1  UNL1       -0.4371
      3 O          21.2457   69.6421   -3.3716 O.2     1  UNL1       -0.5170
      4 O          21.8184   70.7612   -1.1829 O.3     1  UNL1       -0.3112
      5 C          22.7108   71.4460   -0.3018 C.3     1  UNL1        0.1811
      6 C          21.8135   74.1621    1.8785 C.3     1  UNL1        0.2383
      7 C          23.2543   74.4947    1.4143 C.3     1  UNL1        0.1895
      8 O          23.4584   75.9078    1.3573 O.3     1  UNL1       -0.3779
      9 C          23.2907   73.8737   -0.0036 C.3     1  UNL1        0.1713
     10 C          22.1518   72.8363    0.0103 C.3     1  UNL1        0.1764
     11 O          21.5784   72.8481    1.3273 O.3     1  UNL1       -0.3308
     12 O          23.0443   74.8744   -0.9929 O.3     1  UNL1       -0.3794
     13 H          24.3454   76.1662    1.0725 H       1  UNL1        0.2106
     14 H          23.6995   75.5850   -1.0065 H       1  UNL1        0.2105
     15 N          21.7372   74.1298    3.3408 N.ar    1  UNL1       -0.2551
     16 C          21.9609   72.9759    3.9944 C.ar    1  UNL1        0.3323
     17 N          21.8973   72.9171    5.3378 N.ar    1  UNL1       -0.2743
     18 C          21.6078   74.0233    6.0527 C.ar    1  UNL1        0.2626
     19 C          21.3710   75.2449    5.3776 C.ar    1  UNL1        0.0795
     20 C          21.4456   75.2759    4.0304 C.ar    1  UNL1        0.0869
     21 O          22.2232   71.9706    3.3627 O.2     1  UNL1       -0.2464
     22 O          21.5503   73.9715    7.2686 O.2     1  UNL1       -0.2670
     23 H          22.0601   72.0767    5.7932 H       1  UNL1        0.1734
     24 O          21.3789   72.1627   -3.3637 O.3     1  UNL1       -0.2703
     25 P          21.2811   72.8087   -4.8355 P.3     1  UNL1        0.2208
     26 O          20.8981   74.3681   -4.7122 O.3     1  UNL1       -0.4371
     27 O          22.5851   72.6744   -5.5211 O.2     1  UNL1       -0.5170
     28 O          20.1469   72.0425   -5.6835 O.3     1  UNL1       -0.2865
     29 C          19.0097   72.7051   -6.2393 C.3     1  UNL1        0.2611
     30 C          17.7347   71.9661   -5.8258 C.3     1  UNL1        0.1582
     31 C          17.7704   70.5452   -6.3971 C.3     1  UNL1        0.1625
     32 C          17.9295   70.6220   -7.9180 C.3     1  UNL1        0.1686
     33 C          19.1973   71.4130   -8.2509 C.3     1  UNL1        0.1760
     34 O          16.5507   69.8718   -6.0779 O.3     1  UNL1       -0.3801
     35 O          16.7939   71.2783   -8.4845 O.3     1  UNL1       -0.3794
     36 O          19.1132   72.7134   -7.6646 O.3     1  UNL1       -0.3263
     37 H          16.5046   68.9643   -6.4090 H       1  UNL1        0.2105
     38 H          16.8276   71.3629   -9.4477 H       1  UNL1        0.2105
     39 C          16.4725   72.0721   -3.7441 C.2     1  UNL1        0.2231
     40 C          16.3920   72.0084   -2.2414 C.3     1  UNL1        0.0946
     41 N          17.6573   71.9042   -4.3640 N.am    1  UNL1       -0.2994
     42 O          15.4703   72.2746   -4.3974 O.2     1  UNL1       -0.2751
     43 H          18.4589   71.7432   -3.8420 H       1  UNL1        0.1496
     44 C          19.3316   71.5454   -9.7691 C.3     1  UNL1        0.1693
     45 O          18.7142   70.4229  -10.4024 O.3     1  UNL1       -0.3794
     46 H          18.7615   70.4402  -11.3680 H       1  UNL1        0.2105
@<TRIPOS>BOND
     1    29    30    1
     2    30    41    1
     3    30    31    1
     4    31    34    1
     5    31    32    1
     6    32    35    1
     7    32    33    1
     8    33    36    1
     9    33    44    1
    10    39    40    1
    11    39    42    2
    12    39    41   am
    13    41    43    1
    14    29    28    1
    15    34    37    1
    16    35    38    1
    17    29    36    1
    18    44    45    1
    19    45    46    1
    20    15     6    1
    21    15    16   ar
    22    16    21    2
    23    16    17   ar
    24    17    23    1
    25    17    18   ar
    26    18    19   ar
    27    19    20   ar
    28    15    20   ar
    29    18    22    2
    30     6     7    1
    31     6    11    1
    32     7     9    1
    33     7     8    1
    34     8    13    1
    35     9    10    1
    36     9    12    1
    37    10     5    1
    38    10    11    1
    39    12    14    1
    40     5     4    1
    41     4     1    1
    42     1     2    1
    43     1    24    1
    44     1     3    2
    45    24    25    1
    46    28    25    1
    47    25    26    1
    48    25    27    2
@<TRIPOS>MOLECULE
UD2
 46 48 0 0 0
SMALL
GASTEIGER

@<TRIPOS>ATOM
      1 P          21.8175   70.6885   -2.8541 P.3     1  UNL1        0.2189
      2 O          23.3904   70.6842   -3.1966 O.3     1  UNL1       -0.4371
      3 O          21.3057   69.3004   -2.8656 O.2     1  UNL1       -0.5170
      4 O          21.5877   71.3332   -1.3963 O.3     1  UNL1       -0.3112
      5 C          22.3122   72.4717   -0.9270 C.3     1  UNL1        0.1811
      6 C          22.4893   74.0221    2.3136 C.3     1  UNL1        0.2383
      7 C          22.0026   75.1497    1.3682 C.3     1  UNL1        0.1895
      8 O          21.1590   76.0698    2.0637 O.3     1  UNL1       -0.3779
      9 C          21.2002   74.3595    0.3055 C.3     1  UNL1        0.1713
     10 C          21.7395   72.9208    0.4196 C.3     1  UNL1        0.1764
     11 O          22.7768   72.9302    1.4132 O.3     1  UNL1       -0.3308
     12 O          19.8040   74.3961    0.6056 O.3     1  UNL1       -0.3794
     13 H          20.8295   76.7940    1.5145 H       1  UNL1        0.2106
     14 H          19.4242   75.2850    0.6062 H       1  UNL1        0.2105
     15 N          23.6994   74.4345    3.0281 N.ar    1  UNL1       -0.2551
     16 C          23.8745   74.0667    4.3098 C.ar    1  UNL1        0.3323
     17 N          24.9769   74.4316    4.9909 N.ar    1  UNL1       -0.2743
     18 C          25.9294   75.1753    4.3923 C.ar    1  UNL1        0.2626
     19 C          25.7585   75.5686    3.0432 C.ar    1  UNL1        0.0795
     20 C          24.6455   75.1850    2.3833 C.ar    1  UNL1        0.0869
     21 O          23.0240   73.3959    4.8622 O.2     1  UNL1       -0.2464
     22 O          26.9278   75.5059    5.0075 O.2     1  UNL1       -0.2670
     23 H          25.0868   74.1589    5.9149 H       1  UNL1        0.1734
     24 O          21.0304   71.5602   -3.9558 O.3     1  UNL1       -0.2703
     25 P          21.4111   72.8505   -4.8408 P.3     1  UNL1        0.2208
     26 O          21.1804   74.1853   -3.9696 O.3     1  UNL1       -0.4371
     27 O          22.8305   72.7677   -5.2489 O.2     1  UNL1       -0.5170
     28 O          20.4771   72.8966   -6.1516 O.3     1  UNL1       -0.2865
     29 C          19.9751   71.7219   -6.7915 C.3     1  UNL1        0.2611
     30 C          19.8289   71.9805   -8.2930 C.3     1  UNL1        0.1582
     31 C          18.8085   73.1017   -8.5122 C.3     1  UNL1        0.1625
     32 C          17.4815   72.7045   -7.8597 C.3     1  UNL1        0.1686
     33 C          17.7183   72.4180   -6.3745 C.3     1  UNL1        0.1760
     34 O          18.6110   73.2998   -9.9140 O.3     1  UNL1       -0.3801
     35 O          16.9678   71.5333   -8.4966 O.3     1  UNL1       -0.3794
     36 O          18.6996   71.3879   -6.2403 O.3     1  UNL1       -0.3263
     37 H          17.9761   73.9976  -10.1266 H       1  UNL1        0.2105
     38 H          16.1267   71.2236   -8.1325 H       1  UNL1        0.2105
     39 C          21.4770   73.6818   -8.8649 C.2     1  UNL1        0.2231
     40 C          22.8082   74.0947   -9.4359 C.3     1  UNL1        0.0946
     41 N          21.1239   72.3814   -8.8488 N.am    1  UNL1       -0.2994
     42 O          20.7217   74.5202   -8.4190 O.2     1  UNL1       -0.2751
     43 H          21.7270   71.7109   -9.2061 H       1  UNL1        0.1496
     44 C          16.4086   71.9626   -5.7281 C.3     1  UNL1        0.1693
     45 O          16.6499   70.8046   -4.9261 O.3     1  UNL1       -0.3794
     46 H          15.8615   70.4600   -4.4847 H       1  UNL1        0.2105
@<TRIPOS>BOND
     1    29    30    1
     2    30    41    1
     3    30    31    1
     4    31    34    1
     5    31    32    1
     6    32    35    1
     7    32    33    1
     8    33    36    1
     9    33    44    1
    10    39    40    1
    11    39    42    2
    12    39    41   am
    13    41    43    1
    14    29    28    1
    15    34    37    1
    16    35    38    1
    17    29    36    1
    18    44    45    1
    19    45    46    1
    20    15     6    1
    21    15    16   ar
    22    16    21    2
    23    16    17   ar
    24    17    23    1
    25    17    18   ar
    26    18    19   ar
    27    19    20   ar
    28    15    20   ar
    29    18    22    2
    30     6     7    1
    31     6    11    1
    32     7     9    1
    33     7     8    1
    34     8    13    1
    35     9    10    1
    36     9    12    1
    37    10     5    1
    38    10    11    1
    39    12    14    1
    40     5     4    1
    41     4     1    1
    42     1     2    1
    43     1    24    1
    44     1     3    2
    45    24    25    1
    46    28    25    1
    47    25    26    1
    48    25    27    2
@<TRIPOS>MOLECULE
UD2
 46 48 0 0 0
SMALL
GASTEIGER

@<TRIPOS>ATOM
      1 P          22.7722   71.8542   -3.2108 P.3     1  UNL1        0.2189
      2 O          23.0129   72.5517   -1.7801 O.3     1  UNL1       -0.4371
      3 O          23.4549   70.5420   -3.2416 O.2     1  UNL1       -0.5170
      4 O          21.1930   71.6433   -3.4460 O.3     1  UNL1       -0.3112
      5 C          20.1998   72.1502   -2.5527 C.3     1  UNL1        0.1811
      6 C          17.9515   71.4012   -5.2584 C.3     1  UNL1        0.2383
      7 C          17.9598   70.1164   -4.3917 C.3     1  UNL1        0.1895
      8 O          16.7013   69.4437   -4.4647 O.3     1  UNL1       -0.3779
      9 C          18.2014   70.6837   -2.9714 C.3     1  UNL1        0.1713
     10 C          18.8249   72.0703   -3.2208 C.3     1  UNL1        0.1764
     11 O          18.9622   72.2283   -4.6420 O.3     1  UNL1       -0.3308
     12 O          16.9646   70.8103   -2.2678 O.3     1  UNL1       -0.3794
     13 H          16.6571   68.6333   -3.9393 H       1  UNL1        0.2106
     14 H          16.4994   69.9734   -2.1347 H       1  UNL1        0.2105
     15 N          18.3124   71.0912   -6.6436 N.ar    1  UNL1       -0.2551
     16 C          17.3468   70.8129   -7.5375 C.ar    1  UNL1        0.3323
     17 N          17.6495   70.5244   -8.8171 N.ar    1  UNL1       -0.2743
     18 C          18.9350   70.5121   -9.2242 C.ar    1  UNL1        0.2626
     19 C          19.9615   70.8042   -8.2942 C.ar    1  UNL1        0.0795
     20 C          19.6290   71.0942   -7.0187 C.ar    1  UNL1        0.0869
     21 O          16.1833   70.8205   -7.1844 O.2     1  UNL1       -0.2464
     22 O          19.2103   70.2515  -10.3822 O.2     1  UNL1       -0.2670
     23 H          16.9411   70.3248   -9.4483 H       1  UNL1        0.1734
     24 O          23.3662   72.7960   -4.3742 O.3     1  UNL1       -0.2703
     25 P          23.1107   74.3234   -4.8154 P.3     1  UNL1        0.2208
     26 O          22.9335   74.3971   -6.4144 O.3     1  UNL1       -0.4371
     27 O          21.8843   74.8280   -4.1600 O.2     1  UNL1       -0.5170
     28 O          24.3674   75.2274   -4.3721 O.3     1  UNL1       -0.2865
     29 C          25.3733   74.7712   -3.4658 C.3     1  UNL1        0.2611
     30 C          25.4976   75.7571   -2.3017 C.3     1  UNL1        0.1582
     31 C          25.9424   77.1193   -2.8429 C.3     1  UNL1        0.1625
     32 C          27.2608   76.9490   -3.6027 C.3     1  UNL1        0.1686
     33 C          27.0683   75.9170   -4.7170 C.3     1  UNL1        0.1760
     34 O          26.1321   78.0264   -1.7545 O.3     1  UNL1       -0.3801
     35 O          28.2755   76.4983   -2.7035 O.3     1  UNL1       -0.3794
     36 O          26.6251   74.6827   -4.1495 O.3     1  UNL1       -0.3263
     37 H          26.4141   78.9110   -2.0249 H       1  UNL1        0.2105
     38 H          29.1398   76.3679   -3.1182 H       1  UNL1        0.2105
     39 C          24.0718   75.5700   -0.3345 C.2     1  UNL1        0.2231
     40 C          22.7379   75.7114    0.3505 C.3     1  UNL1        0.0946
     41 N          24.1997   75.8947   -1.6362 N.am    1  UNL1       -0.2994
     42 O          25.0323   75.1635    0.2856 O.2     1  UNL1       -0.2751
     43 H          23.4318   76.2187   -2.1326 H       1  UNL1        0.1496
     44 C          28.3968   75.6969   -5.4430 C.3     1  UNL1        0.1693
     45 O          28.4628   74.3513   -5.9198 O.3     1  UNL1       -0.3794
     46 H          29.2801   74.1402   -6.3914 H       1  UNL1        0.2105
@<TRIPOS>BOND
     1    29    30    1
     2    30    41    1
     3    30    31    1
     4    31    34    1
     5    31    32    1
     6    32    35    1
     7    32    33    1
     8    33    36    1
     9    33    44    1
    10    39    40    1
    11    39    42    2
    12    39    41   am
    13    41    43    1
    14    29    28    1
    15    34    37    1
    16    35    38    1
    17    29    36    1
    18    44    45    1
    19    45    46    1
    20    15     6    1
    21    15    16   ar
    22    16    21    2
    23    16    17   ar
    24    17    23    1
    25    17    18   ar
    26    18    19   ar
    27    19    20   ar
    28    15    20   ar
    29    18    22    2
    30     6     7    1
    31     6    11    1
    32     7     9    1
    33     7     8    1
    34     8    13    1
    35     9    10    1
    36     9    12    1
    37    10     5    1
    38    10    11    1
    39    12    14    1
    40     5     4    1
    41     4     1    1
    42     1     2    1
    43     1    24    1
    44     1     3    2
    45    24    25    1
    46    28    25    1
    47    25    26    1
    48    25    27    2
@<TRIPOS>MOLECULE
UD2
 46 48 0 0 0
SMALL
GASTEIGER

@<TRIPOS>ATOM
      1 P          22.2231   70.4413   -0.2714 P.3     1  UNL1        0.2189
      2 O          21.4642   70.7082    1.1230 O.3     1  UNL1       -0.4371
      3 O          23.3571   69.5178   -0.0476 O.2     1  UNL1       -0.5170
      4 O          21.1961   69.7850   -1.3241 O.3     1  UNL1       -0.3112
      5 C          21.2095   70.0944   -2.7189 C.3     1  UNL1        0.1811
      6 C          18.5848   70.8086   -5.0721 C.3     1  UNL1        0.2383
      7 C          18.2130   69.4246   -4.4819 C.3     1  UNL1        0.1895
      8 O          16.7957   69.2453   -4.4559 O.3     1  UNL1       -0.3779
      9 C          18.7843   69.5194   -3.0458 C.3     1  UNL1        0.1713
     10 C          19.8400   70.6380   -3.1336 C.3     1  UNL1        0.1764
     11 O          19.8827   71.0797   -4.4998 O.3     1  UNL1       -0.3308
     12 O          17.7544   69.8744   -2.1217 O.3     1  UNL1       -0.3794
     13 H          16.5132   68.3939   -4.0954 H       1  UNL1        0.2106
     14 H          17.0331   69.2328   -2.0698 H       1  UNL1        0.2105
     15 N          18.6685   70.7408   -6.5327 N.ar    1  UNL1       -0.2551
     16 C          17.5431   70.7872   -7.2676 C.ar    1  UNL1        0.3323
     17 N          17.5903   70.7266   -8.6116 N.ar    1  UNL1       -0.2743
     18 C          18.7760   70.6197   -9.2450 C.ar    1  UNL1        0.2626
     19 C          19.9687   70.5710   -8.4839 C.ar    1  UNL1        0.0795
     20 C          19.8921   70.6379   -7.1381 C.ar    1  UNL1        0.0869
     21 O          16.4670   70.8837   -6.7099 O.2     1  UNL1       -0.2464
     22 O          18.8201   70.5653  -10.4614 O.2     1  UNL1       -0.2670
     23 H          16.7692   70.7601   -9.1262 H       1  UNL1        0.1734
     24 O          22.7741   71.8360   -0.8584 O.3     1  UNL1       -0.2703
     25 P          22.2721   73.3633   -0.7674 P.3     1  UNL1        0.2208
     26 O          20.6952   73.3909   -0.4412 O.3     1  UNL1       -0.4371
     27 O          23.0099   74.0621    0.3077 O.2     1  UNL1       -0.5170
     28 O          22.5430   74.1017   -2.1724 O.3     1  UNL1       -0.2865
     29 C          23.7534   73.9430   -2.9146 C.3     1  UNL1        0.2611
     30 C          24.5503   75.2493   -2.8784 C.3     1  UNL1        0.1582
     31 C          23.7326   76.3550   -3.5532 C.3     1  UNL1        0.1625
     32 C          23.3908   75.9229   -4.9818 C.3     1  UNL1        0.1686
     33 C          22.6384   74.5903   -4.9368 C.3     1  UNL1        0.1760
     34 O          24.4992   77.5609   -3.5894 O.3     1  UNL1       -0.3801
     35 O          24.5951   75.7668   -5.7346 O.3     1  UNL1       -0.3794
     36 O          23.4411   73.6141   -4.2698 O.3     1  UNL1       -0.3263
     37 H          24.0413   78.3052   -4.0037 H       1  UNL1        0.2105
     38 H          24.4537   75.4927   -6.6516 H       1  UNL1        0.2105
     39 C          26.0825   75.5980   -1.0161 C.2     1  UNL1        0.2231
     40 C          26.3606   75.9788    0.4144 C.3     1  UNL1        0.0946
     41 N          24.8199   75.6196   -1.4868 N.am    1  UNL1       -0.2994
     42 O          26.9954   75.2714   -1.7455 O.2     1  UNL1       -0.2751
     43 H          24.0896   75.8797   -0.9037 H       1  UNL1        0.1496
     44 C          22.3456   74.1218   -6.3634 C.3     1  UNL1        0.1693
     45 O          22.6433   72.7288   -6.4787 O.3     1  UNL1       -0.3794
     46 H          22.4809   72.3629   -7.3589 H       1  UNL1        0.2105
@<TRIPOS>BOND
     1    29    30    1
     2    30    41    1
     3    30    31    1
     4    31    34    1
     5    31    32    1
     6    32    35    1
     7    32    33    1
     8    33    36    1
     9    33    44    1
    10    39    40    1
    11    39    42    2
    12    39    41   am
    13    41    43    1
    14    29    28    1
    15    34    37    1
    16    35    38    1
    17    29    36    1
    18    44    45    1
    19    45    46    1
    20    15     6    1
    21    15    16   ar
    22    16    21    2
    23    16    17   ar
    24    17    23    1
    25    17    18   ar
    26    18    19   ar
    27    19    20   ar
    28    15    20   ar
    29    18    22    2
    30     6     7    1
    31     6    11    1
    32     7     9    1
    33     7     8    1
    34     8    13    1
    35     9    10    1
    36     9    12    1
    37    10     5    1
    38    10    11    1
    39    12    14    1
    40     5     4    1
    41     4     1    1
    42     1     2    1
    43     1    24    1
    44     1     3    2
    45    24    25    1
    46    28    25    1
    47    25    26    1
    48    25    27    2
@<TRIPOS>MOLECULE
UD2
 46 48 0 0 0
SMALL
GASTEIGER

@<TRIPOS>ATOM
      1 P          21.5606   71.0901   -0.2709 P.3     1  UNL1        0.2189
      2 O          21.5536   69.7469    0.6163 O.3     1  UNL1       -0.4371
      3 O          22.8698   71.2295   -0.9458 O.2     1  UNL1       -0.5170
      4 O          20.3926   71.0087   -1.3768 O.3     1  UNL1       -0.3112
      5 C          20.4932   71.6281   -2.6604 C.3     1  UNL1        0.1811
      6 C          18.1104   71.2445   -5.3271 C.3     1  UNL1        0.2383
      7 C          18.0023   69.9285   -4.5156 C.3     1  UNL1        0.1895
      8 O          16.6773   69.3973   -4.5793 O.3     1  UNL1       -0.3779
      9 C          18.3389   70.4026   -3.0806 C.3     1  UNL1        0.1713
     10 C          19.1014   71.7248   -3.2901 C.3     1  UNL1        0.1764
     11 O          19.2192   71.9310   -4.7068 O.3     1  UNL1       -0.3308
     12 O          17.1410   70.6282   -2.3358 O.3     1  UNL1       -0.3794
     13 H          16.5595   68.5735   -4.0873 H       1  UNL1        0.2106
     14 H          16.5920   69.8403   -2.2243 H       1  UNL1        0.2105
     15 N          18.4009   70.9604   -6.7342 N.ar    1  UNL1       -0.2551
     16 C          17.3883   70.8011   -7.6048 C.ar    1  UNL1        0.3323
     17 N          17.6260   70.5391   -8.9037 N.ar    1  UNL1       -0.2743
     18 C          18.8927   70.4338   -9.3540 C.ar    1  UNL1        0.2626
     19 C          19.9684   70.6002   -8.4488 C.ar    1  UNL1        0.0795
     20 C          19.7009   70.8663   -7.1530 C.ar    1  UNL1        0.0869
     21 O          16.2410   70.8936   -7.2128 O.2     1  UNL1       -0.2464
     22 O          19.1093   70.1971  -10.5294 O.2     1  UNL1       -0.2670
     23 H          16.8842   70.4259   -9.5177 H       1  UNL1        0.1734
     24 O          21.3090   72.3641    0.6815 O.3     1  UNL1       -0.2703
     25 P          22.1998   73.1294    1.7832 P.3     1  UNL1        0.2208
     26 O          22.8484   72.0528    2.7903 O.3     1  UNL1       -0.4371
     27 O          23.2779   73.8847    1.1083 O.2     1  UNL1       -0.5170
     28 O          21.2686   74.1479    2.6128 O.3     1  UNL1       -0.2865
     29 C          20.2677   73.7125    3.5347 C.3     1  UNL1        0.2611
     30 C          19.1749   74.7787    3.6441 C.3     1  UNL1        0.1582
     31 C          19.7867   76.0696    4.1971 C.3     1  UNL1        0.1625
     32 C          20.4449   75.7724    5.5472 C.3     1  UNL1        0.1686
     33 C          21.4890   74.6677    5.3644 C.3     1  UNL1        0.1760
     34 O          18.7593   77.0479    4.3717 O.3     1  UNL1       -0.3801
     35 O          19.4509   75.3414    6.4786 O.3     1  UNL1       -0.3794
     36 O          20.8605   73.5061    4.8185 O.3     1  UNL1       -0.3263
     37 H          19.0763   77.8929    4.7191 H       1  UNL1        0.2105
     38 H          19.7980   75.1345    7.3576 H       1  UNL1        0.2105
     39 C          17.2764   75.1942    2.1742 C.2     1  UNL1        0.2231
     40 C          16.6916   75.4579    0.8114 C.3     1  UNL1        0.0946
     41 N          18.6068   75.0349    2.3181 N.am    1  UNL1       -0.2994
     42 O          16.5497   75.1250    3.1433 O.2     1  UNL1       -0.2751
     43 H          19.1881   75.0891    1.5434 H       1  UNL1        0.1496
     44 C          22.1091   74.3231    6.7198 C.3     1  UNL1        0.1693
     45 O          22.1918   75.5038    7.5206 O.3     1  UNL1       -0.3794
     46 H          22.5764   75.3598    8.3961 H       1  UNL1        0.2105
@<TRIPOS>BOND
     1    29    30    1
     2    30    41    1
     3    30    31    1
     4    31    34    1
     5    31    32    1
     6    32    35    1
     7    32    33    1
     8    33    36    1
     9    33    44    1
    10    39    40    1
    11    39    42    2
    12    39    41   am
    13    41    43    1
    14    29    28    1
    15    34    37    1
    16    35    38    1
    17    29    36    1
    18    44    45    1
    19    45    46    1
    20    15     6    1
    21    15    16   ar
    22    16    21    2
    23    16    17   ar
    24    17    23    1
    25    17    18   ar
    26    18    19   ar
    27    19    20   ar
    28    15    20   ar
    29    18    22    2
    30     6     7    1
    31     6    11    1
    32     7     9    1
    33     7     8    1
    34     8    13    1
    35     9    10    1
    36     9    12    1
    37    10     5    1
    38    10    11    1
    39    12    14    1
    40     5     4    1
    41     4     1    1
    42     1     2    1
    43     1    24    1
    44     1     3    2
    45    24    25    1
    46    28    25    1
    47    25    26    1
    48    25    27    2
@<TRIPOS>MOLECULE
UD2
 46 48 0 0 0
SMALL
GASTEIGER

@<TRIPOS>ATOM
      1 P          23.3888   73.4729   -3.5865 P.3     1  UNL1        0.2189
      2 O          23.4349   71.8667   -3.6828 O.3     1  UNL1       -0.4371
      3 O          24.7666   74.0100   -3.6283 O.2     1  UNL1       -0.5170
      4 O          22.5456   74.0607   -4.8264 O.3     1  UNL1       -0.3112
      5 C          22.9291   75.2387   -5.5382 C.3     1  UNL1        0.1811
      6 C          20.2090   74.6181   -7.8081 C.3     1  UNL1        0.2383
      7 C          19.5344   74.7548   -6.4195 C.3     1  UNL1        0.1895
      8 O          18.2168   75.2937   -6.5434 O.3     1  UNL1       -0.3779
      9 C          20.4736   75.7524   -5.6983 C.3     1  UNL1        0.1713
     10 C          21.7974   75.6559   -6.4805 C.3     1  UNL1        0.1764
     11 O          21.6196   74.6611   -7.5014 O.3     1  UNL1       -0.3308
     12 O          19.9446   77.0774   -5.7711 O.3     1  UNL1       -0.3794
     13 H          17.7533   75.3977   -5.7014 H       1  UNL1        0.2106
     14 H          19.0829   77.1817   -5.3454 H       1  UNL1        0.2105
     15 N          19.8547   73.3404   -8.4302 N.ar    1  UNL1       -0.2551
     16 C          18.7881   73.2698   -9.2465 C.ar    1  UNL1        0.3323
     17 N          18.4392   72.1087   -9.8317 N.ar    1  UNL1       -0.2743
     18 C          19.1609   70.9918   -9.6072 C.ar    1  UNL1        0.2626
     19 C          20.2866   71.0520   -8.7510 C.ar    1  UNL1        0.0795
     20 C          20.6159   72.2302   -8.1811 C.ar    1  UNL1        0.0869
     21 O          18.1284   74.2690   -9.4581 O.2     1  UNL1       -0.2464
     22 O          18.8464   69.9404  -10.1365 O.2     1  UNL1       -0.2670
     23 H          17.6666   72.0751  -10.4166 H       1  UNL1        0.1734
     24 O          22.6845   73.9079   -2.2052 O.3     1  UNL1       -0.2703
     25 P          21.1710   74.2631   -1.7855 P.3     1  UNL1        0.2208
     26 O          21.0047   74.1022   -0.1917 O.3     1  UNL1       -0.4371
     27 O          20.8650   75.6572   -2.1745 O.2     1  UNL1       -0.5170
     28 O          20.1572   73.2615   -2.5350 O.3     1  UNL1       -0.2865
     29 C          19.4593   72.2124   -1.8616 C.3     1  UNL1        0.2611
     30 C          20.3355   70.9580   -1.8232 C.3     1  UNL1        0.1582
     31 C          20.6065   70.4909   -3.2566 C.3     1  UNL1        0.1625
     32 C          19.2706   70.2444   -3.9630 C.3     1  UNL1        0.1686
     33 C          18.4352   71.5267   -3.9189 C.3     1  UNL1        0.1760
     34 O          21.3627   69.2782   -3.2285 O.3     1  UNL1       -0.3801
     35 O          18.5668   69.1923   -3.3002 O.3     1  UNL1       -0.3794
     36 O          18.2460   71.9235   -2.5592 O.3     1  UNL1       -0.3263
     37 H          21.5716   68.9250   -4.1042 H       1  UNL1        0.2105
     38 H          17.7088   68.9826   -3.6949 H       1  UNL1        0.2105
     39 C          22.0165   70.5284   -0.1122 C.2     1  UNL1        0.2231
     40 C          23.3217   70.8462    0.5690 C.3     1  UNL1        0.0946
     41 N          21.6051   71.2680   -1.1609 N.am    1  UNL1       -0.2994
     42 O          21.3347   69.6059    0.2831 O.2     1  UNL1       -0.2751
     43 H          22.1495   72.0062   -1.4767 H       1  UNL1        0.1496
     44 C          17.0747   71.2714   -4.5701 C.3     1  UNL1        0.1693
     45 O          16.1910   70.6825   -3.6137 O.3     1  UNL1       -0.3794
     46 H          15.3077   70.4926   -3.9583 H       1  UNL1        0.2105
@<TRIPOS>BOND
     1    29    30    1
     2    30    41    1
     3    30    31    1
     4    31    34    1
     5    31    32    1
     6    32    35    1
     7    32    33    1
     8    33    36    1
     9    33    44    1
    10    39    40    1
    11    39    42    2
    12    39    41   am
    13    41    43    1
    14    29    28    1
    15    34    37    1
    16    35    38    1
    17    29    36    1
    18    44    45    1
    19    45    46    1
    20    15     6    1
    21    15    16   ar
    22    16    21    2
    23    16    17   ar
    24    17    23    1
    25    17    18   ar
    26    18    19   ar
    27    19    20   ar
    28    15    20   ar
    29    18    22    2
    30     6     7    1
    31     6    11    1
    32     7     9    1
    33     7     8    1
    34     8    13    1
    35     9    10    1
    36     9    12    1
    37    10     5    1
    38    10    11    1
    39    12    14    1
    40     5     4    1
    41     4     1    1
    42     1     2    1
    43     1    24    1
    44     1     3    2
    45    24    25    1
    46    28    25    1
    47    25    26    1
    48    25    27    2
@<TRIPOS>MOLECULE
UD2
 46 48 0 0 0
SMALL
GASTEIGER

@<TRIPOS>ATOM
      1 P          23.2070   72.9417   -3.2700 P.3     1  UNL1        0.2189
      2 O          23.4511   71.3688   -3.5105 O.3     1  UNL1       -0.4371
      3 O          23.0385   73.1999   -1.8230 O.2     1  UNL1       -0.5170
      4 O          24.4735   73.7712   -3.8194 O.3     1  UNL1       -0.3112
      5 C          24.4997   75.1984   -3.8824 C.3     1  UNL1        0.1811
      6 C          28.0276   75.6108   -4.4484 C.3     1  UNL1        0.2383
      7 C          27.3831   76.8777   -5.0661 C.3     1  UNL1        0.1895
      8 O          28.2678   77.9961   -4.9751 O.3     1  UNL1       -0.3779
      9 C          26.1400   77.0821   -4.1660 C.3     1  UNL1        0.1713
     10 C          25.9031   75.6984   -3.5312 C.3     1  UNL1        0.1764
     11 O          26.8897   74.8052   -4.0718 O.3     1  UNL1       -0.3308
     12 O          26.4097   78.0564   -3.1566 O.3     1  UNL1       -0.3794
     13 H          27.9097   78.8126   -5.3488 H       1  UNL1        0.2106
     14 H          26.6238   78.9333   -3.5025 H       1  UNL1        0.2105
     15 N          28.8481   74.9132   -5.4410 N.ar    1  UNL1       -0.2551
     16 C          29.8626   74.1292   -5.0347 C.ar    1  UNL1        0.3323
     17 N          30.6331   73.4765   -5.9249 N.ar    1  UNL1       -0.2743
     18 C          30.3956   73.5991   -7.2467 C.ar    1  UNL1        0.2626
     19 C          29.3304   74.4202   -7.6884 C.ar    1  UNL1        0.0795
     20 C          28.5714   75.0596   -6.7737 C.ar    1  UNL1        0.0869
     21 O          30.0881   74.0093   -3.8460 O.2     1  UNL1       -0.2464
     22 O          31.0920   73.0085   -8.0534 O.2     1  UNL1       -0.2670
     23 H          31.3612   72.9162   -5.6150 H       1  UNL1        0.1734
     24 O          21.8805   73.4057   -4.0564 O.3     1  UNL1       -0.2703
     25 P          21.4186   73.3521   -5.5981 P.3     1  UNL1        0.2208
     26 O          21.0989   74.8438   -6.1142 O.3     1  UNL1       -0.4371
     27 O          22.5029   72.7689   -6.4182 O.2     1  UNL1       -0.5170
     28 O          20.0963   72.4429   -5.7308 O.3     1  UNL1       -0.2865
     29 C          18.8579   72.9399   -6.2411 C.3     1  UNL1        0.2611
     30 C          17.7142   72.0335   -5.7796 C.3     1  UNL1        0.1582
     31 C          17.9238   70.6290   -6.3540 C.3     1  UNL1        0.1625
     32 C          18.0120   70.7210   -7.8798 C.3     1  UNL1        0.1686
     33 C          19.1446   71.6783   -8.2604 C.3     1  UNL1        0.1760
     34 O          16.8221   69.7947   -5.9888 O.3     1  UNL1       -0.3801
     35 O          16.7756   71.2120   -8.4010 O.3     1  UNL1       -0.3794
     36 O          18.9042   72.9569   -7.6694 O.3     1  UNL1       -0.3263
     37 H          16.8891   68.8883   -6.3192 H       1  UNL1        0.2105
     38 H          16.7602   71.2967   -9.3646 H       1  UNL1        0.2105
     39 C          16.5561   72.1823   -3.6408 C.2     1  UNL1        0.2231
     40 C          16.5431   72.1141   -2.1363 C.3     1  UNL1        0.0946
     41 N          17.7024   71.9672   -4.3161 N.am    1  UNL1       -0.2994
     42 O          15.5342   72.4311   -4.2458 O.2     1  UNL1       -0.2751
     43 H          18.5198   71.7693   -3.8328 H       1  UNL1        0.1496
     44 C          19.2007   71.8221   -9.7825 C.3     1  UNL1        0.1693
     45 O          18.8174   70.5880  -10.3927 O.3     1  UNL1       -0.3794
     46 H          18.8300   70.6059  -11.3594 H       1  UNL1        0.2105
@<TRIPOS>BOND
     1    29    30    1
     2    30    41    1
     3    30    31    1
     4    31    34    1
     5    31    32    1
     6    32    35    1
     7    32    33    1
     8    33    36    1
     9    33    44    1
    10    39    40    1
    11    39    42    2
    12    39    41   am
    13    41    43    1
    14    29    28    1
    15    34    37    1
    16    35    38    1
    17    29    36    1
    18    44    45    1
    19    45    46    1
    20    15     6    1
    21    15    16   ar
    22    16    21    2
    23    16    17   ar
    24    17    23    1
    25    17    18   ar
    26    18    19   ar
    27    19    20   ar
    28    15    20   ar
    29    18    22    2
    30     6     7    1
    31     6    11    1
    32     7     9    1
    33     7     8    1
    34     8    13    1
    35     9    10    1
    36     9    12    1
    37    10     5    1
    38    10    11    1
    39    12    14    1
    40     5     4    1
    41     4     1    1
    42     1     2    1
    43     1    24    1
    44     1     3    2
    45    24    25    1
    46    28    25    1
    47    25    26    1
    48    25    27    2
@<TRIPOS>MOLECULE
UD2
 46 48 0 0 0
SMALL
GASTEIGER

@<TRIPOS>ATOM
      1 P          22.9095   72.3039   -3.5422 P.3     1  UNL1        0.2189
      2 O          23.9643   73.4205   -3.0605 O.3     1  UNL1       -0.4371
      3 O          23.5089   70.9599   -3.3902 O.2     1  UNL1       -0.5170
      4 O          21.5765   72.4020   -2.6437 O.3     1  UNL1       -0.3112
      5 C          21.5467   73.0376   -1.3644 C.3     1  UNL1        0.1811
      6 C          23.2047   72.3200    1.7457 C.3     1  UNL1        0.2383
      7 C          22.4408   71.0162    1.4014 C.3     1  UNL1        0.1895
      8 O          23.1334   69.8716    1.9034 O.3     1  UNL1       -0.3779
      9 C          22.4505   71.0326   -0.1469 C.3     1  UNL1        0.1713
     10 C          22.6991   72.5100   -0.5061 C.3     1  UNL1        0.1764
     11 O          22.7665   73.2446    0.7264 O.3     1  UNL1       -0.3308
     12 O          23.5064   70.2111   -0.6479 O.3     1  UNL1       -0.3794
     13 H          22.6944   69.0314    1.7136 H       1  UNL1        0.2106
     14 H          23.4319   69.2795   -0.4010 H       1  UNL1        0.2105
     15 N          22.8285   72.8022    3.0764 N.ar    1  UNL1       -0.2551
     16 C          21.5994   72.5423    3.5565 C.ar    1  UNL1        0.3323
     17 N          21.2265   72.9733    4.7761 N.ar    1  UNL1       -0.2743
     18 C          22.0875   73.6757    5.5403 C.ar    1  UNL1        0.2626
     19 C          23.3849   73.9556    5.0478 C.ar    1  UNL1        0.0795
     20 C          23.7333   73.5076    3.8233 C.ar    1  UNL1        0.0869
     21 O          20.8127   71.9098    2.8786 O.2     1  UNL1       -0.2464
     22 O          21.7514   74.0660    6.6444 O.2     1  UNL1       -0.2670
     23 H          20.3361   72.7781    5.1065 H       1  UNL1        0.1734
     24 O          22.5331   72.5523   -5.0882 O.3     1  UNL1       -0.2703
     25 P          21.4064   73.4246   -5.8382 P.3     1  UNL1        0.2208
     26 O          21.1441   74.7836   -5.0148 O.3     1  UNL1       -0.4371
     27 O          21.8675   73.7572   -7.2039 O.2     1  UNL1       -0.5170
     28 O          20.0403   72.5765   -5.9242 O.3     1  UNL1       -0.2865
     29 C          18.8572   73.0684   -6.5564 C.3     1  UNL1        0.2611
     30 C          17.6379   72.3209   -6.0114 C.3     1  UNL1        0.1582
     31 C          17.7654   70.8338   -6.3560 C.3     1  UNL1        0.1625
     32 C          17.9086   70.6827   -7.8729 C.3     1  UNL1        0.1686
     33 C          19.1179   71.4936   -8.3462 C.3     1  UNL1        0.1760
     34 O          16.5961   70.1398   -5.9152 O.3     1  UNL1       -0.3801
     35 O          16.7275   71.1667   -8.5147 O.3     1  UNL1       -0.3794
     36 O          18.9503   72.8612   -7.9673 O.3     1  UNL1       -0.3263
     37 H          16.6091   69.1908   -6.1007 H       1  UNL1        0.2105
     38 H          16.7489   71.1022   -9.4798 H       1  UNL1        0.2105
     39 C          18.1748   71.5839   -3.7517 C.2     1  UNL1        0.2231
     40 C          18.1105   71.7497   -2.2560 C.3     1  UNL1        0.0946
     41 N          17.5747   72.4827   -4.5566 N.am    1  UNL1       -0.2994
     42 O          18.7672   70.6405   -4.2327 O.2     1  UNL1       -0.2751
     43 H          17.1001   73.2366   -4.1725 H       1  UNL1        0.1496
     44 C          19.2327   71.3962   -9.8686 C.3     1  UNL1        0.1693
     45 O          18.6431   70.1730  -10.3142 O.3     1  UNL1       -0.3794
     46 H          18.6800   70.0439  -11.2718 H       1  UNL1        0.2105
@<TRIPOS>BOND
     1    29    30    1
     2    30    41    1
     3    30    31    1
     4    31    34    1
     5    31    32    1
     6    32    35    1
     7    32    33    1
     8    33    36    1
     9    33    44    1
    10    39    40    1
    11    39    42    2
    12    39    41   am
    13    41    43    1
    14    29    28    1
    15    34    37    1
    16    35    38    1
    17    29    36    1
    18    44    45    1
    19    45    46    1
    20    15     6    1
    21    15    16   ar
    22    16    21    2
    23    16    17   ar
    24    17    23    1
    25    17    18   ar
    26    18    19   ar
    27    19    20   ar
    28    15    20   ar
    29    18    22    2
    30     6     7    1
    31     6    11    1
    32     7     9    1
    33     7     8    1
    34     8    13    1
    35     9    10    1
    36     9    12    1
    37    10     5    1
    38    10    11    1
    39    12    14    1
    40     5     4    1
    41     4     1    1
    42     1     2    1
    43     1    24    1
    44     1     3    2
    45    24    25    1
    46    28    25    1
    47    25    26    1
    48    25    27    2
@<TRIPOS>MOLECULE
UD2
 46 48 0 0 0
SMALL
GASTEIGER

@<TRIPOS>ATOM
      1 P          19.8190   69.8132   -2.4995 P.3     1  UNL1        0.2189
      2 O          18.3700   69.1146   -2.4362 O.3     1  UNL1       -0.4371
      3 O          20.7786   68.9013   -3.1600 O.2     1  UNL1       -0.5170
      4 O          19.7172   71.1845   -3.3379 O.3     1  UNL1       -0.3112
      5 C          19.3095   72.4235   -2.7549 C.3     1  UNL1        0.1811
      6 C          17.8957   73.0537   -6.0015 C.3     1  UNL1        0.2383
      7 C          16.8204   72.2157   -5.2643 C.3     1  UNL1        0.1895
      8 O          15.5086   72.5603   -5.7136 O.3     1  UNL1       -0.3779
      9 C          17.0294   72.6425   -3.7906 C.3     1  UNL1        0.1713
     10 C          18.4629   73.2063   -3.7616 C.3     1  UNL1        0.1764
     11 O          19.0089   73.0551   -5.0816 O.3     1  UNL1       -0.3308
     12 O          16.0869   73.6518   -3.4251 O.3     1  UNL1       -0.3794
     13 H          14.8012   72.0623   -5.2820 H       1  UNL1        0.2106
     14 H          15.1643   73.3690   -3.4826 H       1  UNL1        0.2105
     15 N          18.2708   72.4149   -7.2650 N.ar    1  UNL1       -0.2551
     16 C          18.2845   71.0731   -7.3549 C.ar    1  UNL1        0.3323
     17 N          18.6254   70.4591   -8.5034 N.ar    1  UNL1       -0.2743
     18 C          18.9587   71.1866   -9.5889 C.ar    1  UNL1        0.2626
     19 C          18.9475   72.6000   -9.5087 C.ar    1  UNL1        0.0795
     20 C          18.5976   73.1889   -8.3458 C.ar    1  UNL1        0.0869
     21 O          17.9861   70.4044   -6.3842 O.2     1  UNL1       -0.2464
     22 O          19.2670   70.6322  -10.6291 O.2     1  UNL1       -0.2670
     23 H          18.6313   69.4907   -8.5507 H       1  UNL1        0.1734
     24 O          20.3255   70.1351   -1.0051 O.3     1  UNL1       -0.2703
     25 P          21.7541   70.5149   -0.3666 P.3     1  UNL1        0.2208
     26 O          22.0479   69.5597    0.8964 O.3     1  UNL1       -0.4371
     27 O          22.8138   70.3290   -1.3819 O.2     1  UNL1       -0.5170
     28 O          21.7352   72.0513    0.1150 O.3     1  UNL1       -0.2865
     29 C          22.9240   72.8124    0.3364 C.3     1  UNL1        0.2611
     30 C          22.6038   74.0115    1.2321 C.3     1  UNL1        0.1582
     31 C          21.5977   74.9181    0.5165 C.3     1  UNL1        0.1625
     32 C          22.1798   75.3420   -0.8348 C.3     1  UNL1        0.1686
     33 C          22.5163   74.0912   -1.6510 C.3     1  UNL1        0.1760
     34 O          21.3488   76.0779    1.3142 O.3     1  UNL1       -0.3801
     35 O          23.3665   76.1091   -0.6242 O.3     1  UNL1       -0.3794
     36 O          23.4320   73.2768   -0.9160 O.3     1  UNL1       -0.3263
     37 H          20.7185   76.6972    0.9212 H       1  UNL1        0.2105
     38 H          23.7903   76.4112   -1.4397 H       1  UNL1        0.2105
     39 C          22.7864   73.4920    3.6058 C.2     1  UNL1        0.2231
     40 C          22.1942   73.0074    4.9031 C.3     1  UNL1        0.0946
     41 N          22.0270   73.5398    2.4936 N.am    1  UNL1       -0.2994
     42 O          23.9481   73.8395    3.5615 O.2     1  UNL1       -0.2751
     43 H          21.0985   73.2611    2.5283 H       1  UNL1        0.1496
     44 C          23.1538   74.5051   -2.9787 C.3     1  UNL1        0.1693
     45 O          24.0104   73.4598   -3.4430 O.3     1  UNL1       -0.3794
     46 H          24.4495   73.6540   -4.2824 H       1  UNL1        0.2105
@<TRIPOS>BOND
     1    29    30    1
     2    30    41    1
     3    30    31    1
     4    31    34    1
     5    31    32    1
     6    32    35    1
     7    32    33    1
     8    33    36    1
     9    33    44    1
    10    39    40    1
    11    39    42    2
    12    39    41   am
    13    41    43    1
    14    29    28    1
    15    34    37    1
    16    35    38    1
    17    29    36    1
    18    44    45    1
    19    45    46    1
    20    15     6    1
    21    15    16   ar
    22    16    21    2
    23    16    17   ar
    24    17    23    1
    25    17    18   ar
    26    18    19   ar
    27    19    20   ar
    28    15    20   ar
    29    18    22    2
    30     6     7    1
    31     6    11    1
    32     7     9    1
    33     7     8    1
    34     8    13    1
    35     9    10    1
    36     9    12    1
    37    10     5    1
    38    10    11    1
    39    12    14    1
    40     5     4    1
    41     4     1    1
    42     1     2    1
    43     1    24    1
    44     1     3    2
    45    24    25    1
    46    28    25    1
    47    25    26    1
    48    25    27    2
@<TRIPOS>MOLECULE
UD2
 46 48 0 0 0
SMALL
GASTEIGER

@<TRIPOS>ATOM
      1 P          21.2353   70.9339   -3.2656 P.3     1  UNL1        0.2189
      2 O          22.8172   70.6363   -3.2469 O.3     1  UNL1       -0.4371
      3 O          20.5523   69.9228   -4.1023 O.2     1  UNL1       -0.5170
      4 O          20.6588   70.8655   -1.7633 O.3     1  UNL1       -0.3112
      5 C          20.7808   71.9441   -0.8343 C.3     1  UNL1        0.1811
      6 C          23.0684   72.1981    1.9296 C.3     1  UNL1        0.2383
      7 C          22.6977   70.6945    1.8675 C.3     1  UNL1        0.1895
      8 O          23.7822   69.8826    2.3220 O.3     1  UNL1       -0.3779
      9 C          22.4464   70.4837    0.3543 C.3     1  UNL1        0.1713
     10 C          22.1647   71.9004   -0.1815 C.3     1  UNL1        0.1764
     11 O          22.2048   72.7977    0.9395 O.3     1  UNL1       -0.3308
     12 O          23.6062   69.9331   -0.2721 O.3     1  UNL1       -0.3794
     13 H          23.5985   68.9336    2.3025 H       1  UNL1        0.2106
     14 H          23.8642   69.0661    0.0689 H       1  UNL1        0.2105
     15 N          22.7867   72.7442    3.2591 N.ar    1  UNL1       -0.2551
     16 C          21.5672   72.5808    3.8020 C.ar    1  UNL1        0.3323
     17 N          21.2804   73.0723    5.0220 N.ar    1  UNL1       -0.2743
     18 C          22.2198   73.7390    5.7231 C.ar    1  UNL1        0.2626
     19 C          23.5082   73.9175    5.1642 C.ar    1  UNL1        0.0795
     20 C          23.7692   73.4105    3.9409 C.ar    1  UNL1        0.0869
     21 O          20.7104   71.9815    3.1813 O.2     1  UNL1       -0.2464
     22 O          21.9617   74.1840    6.8276 O.2     1  UNL1       -0.2670
     23 H          20.3956   72.9466    5.3982 H       1  UNL1        0.1734
     24 O          20.9720   72.4013   -3.8744 O.3     1  UNL1       -0.2703
     25 P          21.4304   73.1503   -5.2241 P.3     1  UNL1        0.2208
     26 O          21.5422   74.7330   -4.9475 O.3     1  UNL1       -0.4371
     27 O          22.7473   72.6311   -5.6539 O.2     1  UNL1       -0.5170
     28 O          20.3437   72.8828   -6.3818 O.3     1  UNL1       -0.2865
     29 C          20.0952   71.5879   -6.9320 C.3     1  UNL1        0.2611
     30 C          20.0442   71.6824   -8.4588 C.3     1  UNL1        0.1582
     31 C          18.8813   72.5922   -8.8669 C.3     1  UNL1        0.1625
     32 C          17.5821   72.0381   -8.2759 C.3     1  UNL1        0.1686
     33 C          17.7280   71.9299   -6.7557 C.3     1  UNL1        0.1760
     34 O          18.7807   72.6277  -10.2923 O.3     1  UNL1       -0.3801
     35 O          17.3212   70.7449   -8.8244 O.3     1  UNL1       -0.3794
     36 O          18.8454   71.0954   -6.4443 O.3     1  UNL1       -0.3263
     37 H          18.0639   73.1870  -10.6218 H       1  UNL1        0.2105
     38 H          16.5113   70.3324   -8.4930 H       1  UNL1        0.2105
     39 C          21.4278   73.5747   -9.1242 C.2     1  UNL1        0.2231
     40 C          22.7214   74.1523   -9.6356 C.3     1  UNL1        0.0946
     41 N          21.3028   72.2434   -8.9566 N.am    1  UNL1       -0.2994
     42 O          20.4972   74.3082   -8.8627 O.2     1  UNL1       -0.2751
     43 H          22.0462   71.6566   -9.1665 H       1  UNL1        0.1496
     44 C          16.4556   71.3210   -6.1635 C.3     1  UNL1        0.1693
     45 O          16.1804   70.0738   -6.8047 O.3     1  UNL1       -0.3794
     46 H          15.3856   69.6302   -6.4784 H       1  UNL1        0.2105
@<TRIPOS>BOND
     1    29    30    1
     2    30    41    1
     3    30    31    1
     4    31    34    1
     5    31    32    1
     6    32    35    1
     7    32    33    1
     8    33    36    1
     9    33    44    1
    10    39    40    1
    11    39    42    2
    12    39    41   am
    13    41    43    1
    14    29    28    1
    15    34    37    1
    16    35    38    1
    17    29    36    1
    18    44    45    1
    19    45    46    1
    20    15     6    1
    21    15    16   ar
    22    16    21    2
    23    16    17   ar
    24    17    23    1
    25    17    18   ar
    26    18    19   ar
    27    19    20   ar
    28    15    20   ar
    29    18    22    2
    30     6     7    1
    31     6    11    1
    32     7     9    1
    33     7     8    1
    34     8    13    1
    35     9    10    1
    36     9    12    1
    37    10     5    1
    38    10    11    1
    39    12    14    1
    40     5     4    1
    41     4     1    1
    42     1     2    1
    43     1    24    1
    44     1     3    2
    45    24    25    1
    46    28    25    1
    47    25    26    1
    48    25    27    2
@<TRIPOS>MOLECULE
UD2
 46 48 0 0 0
SMALL
GASTEIGER

@<TRIPOS>ATOM
      1 P          23.0484   72.7327   -3.8798 P.3     1  UNL1        0.2189
      2 O          23.4105   71.2565   -3.3497 O.3     1  UNL1       -0.4371
      3 O          21.9853   73.3151   -3.0316 O.2     1  UNL1       -0.5170
      4 O          24.3604   73.6642   -3.8111 O.3     1  UNL1       -0.3112
      5 C          24.3172   75.0816   -3.9852 C.3     1  UNL1        0.1811
      6 C          27.8461   75.6535   -4.3799 C.3     1  UNL1        0.2383
      7 C          27.1742   76.8344   -5.1256 C.3     1  UNL1        0.1895
      8 O          27.9914   78.0051   -5.0681 O.3     1  UNL1       -0.3779
      9 C          25.8698   77.0310   -4.3149 C.3     1  UNL1        0.1713
     10 C          25.6684   75.6847   -3.5934 C.3     1  UNL1        0.1764
     11 O          26.7317   74.8131   -4.0094 O.3     1  UNL1       -0.3308
     12 O          26.0260   78.0884   -3.3671 O.3     1  UNL1       -0.3794
     13 H          27.6139   78.7712   -5.5212 H       1  UNL1        0.2106
     14 H          26.2140   78.9493   -3.7646 H       1  UNL1        0.2105
     15 N          28.7610   74.9351   -5.2699 N.ar    1  UNL1       -0.2551
     16 C          29.7741   74.2206   -4.7484 C.ar    1  UNL1        0.3323
     17 N          30.6301   73.5507   -5.5426 N.ar    1  UNL1       -0.2743
     18 C          30.4816   73.5855   -6.8825 C.ar    1  UNL1        0.2626
     19 C          29.4190   74.3328   -7.4449 C.ar    1  UNL1        0.0795
     20 C          28.5732   74.9913   -6.6248 C.ar    1  UNL1        0.0869
     21 O          29.9199   74.1802   -3.5420 O.2     1  UNL1       -0.2464
     22 O          31.2555   72.9793   -7.6023 O.2     1  UNL1       -0.2670
     23 H          31.3559   73.0414   -5.1502 H       1  UNL1        0.1734
     24 O          22.5326   72.6449   -5.4028 O.3     1  UNL1       -0.2703
     25 P          21.2243   73.1819   -6.1727 P.3     1  UNL1        0.2208
     26 O          21.1561   74.7869   -6.0587 O.3     1  UNL1       -0.4371
     27 O          21.2952   72.7918   -7.5978 O.2     1  UNL1       -0.5170
     28 O          19.9073   72.5397   -5.5049 O.3     1  UNL1       -0.2865
     29 C          19.3359   71.3053   -5.9420 C.3     1  UNL1        0.2611
     30 C          17.8124   71.3728   -5.8116 C.3     1  UNL1        0.1582
     31 C          17.4426   71.5601   -4.3369 C.3     1  UNL1        0.1625
     32 C          18.0448   70.4129   -3.5210 C.3     1  UNL1        0.1686
     33 C          19.5598   70.3825   -3.7398 C.3     1  UNL1        0.1760
     34 O          16.0201   71.5505   -4.1967 O.3     1  UNL1       -0.3801
     35 O          17.4753   69.1736   -3.9467 O.3     1  UNL1       -0.3794
     36 O          19.8353   70.2373   -5.1344 O.3     1  UNL1       -0.3263
     37 H          15.7142   71.6654   -3.2865 H       1  UNL1        0.2105
     38 H          17.8125   68.4012   -3.4716 H       1  UNL1        0.2105
     39 C          16.4204   72.2939   -7.5869 C.2     1  UNL1        0.2231
     40 C          15.8972   73.4566   -8.3888 C.3     1  UNL1        0.0946
     41 N          17.3041   72.5042   -6.5914 N.am    1  UNL1       -0.2994
     42 O          16.0464   71.1671   -7.8369 O.2     1  UNL1       -0.2751
     43 H          17.6041   73.4048   -6.3917 H       1  UNL1        0.1496
     44 C          20.1617   69.2021   -2.9751 C.3     1  UNL1        0.1693
     45 O          21.3693   69.6159   -2.3325 O.3     1  UNL1       -0.3794
     46 H          21.8065   68.9165   -1.8278 H       1  UNL1        0.2105
@<TRIPOS>BOND
     1    29    30    1
     2    30    41    1
     3    30    31    1
     4    31    34    1
     5    31    32    1
     6    32    35    1
     7    32    33    1
     8    33    36    1
     9    33    44    1
    10    39    40    1
    11    39    42    2
    12    39    41   am
    13    41    43    1
    14    29    28    1
    15    34    37    1
    16    35    38    1
    17    29    36    1
    18    44    45    1
    19    45    46    1
    20    15     6    1
    21    15    16   ar
    22    16    21    2
    23    16    17   ar
    24    17    23    1
    25    17    18   ar
    26    18    19   ar
    27    19    20   ar
    28    15    20   ar
    29    18    22    2
    30     6     7    1
    31     6    11    1
    32     7     9    1
    33     7     8    1
    34     8    13    1
    35     9    10    1
    36     9    12    1
    37    10     5    1
    38    10    11    1
    39    12    14    1
    40     5     4    1
    41     4     1    1
    42     1     2    1
    43     1    24    1
    44     1     3    2
    45    24    25    1
    46    28    25    1
    47    25    26    1
    48    25    27    2
@<TRIPOS>MOLECULE
UD2
 46 48 0 0 0
SMALL
GASTEIGER

@<TRIPOS>ATOM
      1 P          22.5456   71.7268   -3.1654 P.3     1  UNL1        0.2189
      2 O          23.4831   70.4395   -2.9302 O.3     1  UNL1       -0.4371
      3 O          21.1476   71.3900   -2.8174 O.2     1  UNL1       -0.5170
      4 O          23.0538   72.9380   -2.2335 O.3     1  UNL1       -0.3112
      5 C          22.2589   73.5006   -1.1880 C.3     1  UNL1        0.1811
      6 C          22.6576   73.3937    2.3850 C.3     1  UNL1        0.2383
      7 C          21.2185   72.8740    2.1377 C.3     1  UNL1        0.1895
      8 O          20.8381   71.9294    3.1401 O.3     1  UNL1       -0.3779
      9 C          21.3531   72.1888    0.7557 C.3     1  UNL1        0.1713
     10 C          22.6130   72.8270    0.1401 C.3     1  UNL1        0.1764
     11 O          23.0948   73.8080    1.0724 O.3     1  UNL1       -0.3308
     12 O          21.5312   70.7801    0.9126 O.3     1  UNL1       -0.3794
     13 H          19.9452   71.5758    3.0290 H       1  UNL1        0.2106
     14 H          20.7921   70.3356    1.3491 H       1  UNL1        0.2105
     15 N          22.6438   74.5312    3.3074 N.ar    1  UNL1       -0.2551
     16 C          23.6826   74.7276    4.1388 C.ar    1  UNL1        0.3323
     17 N          23.6966   75.7645    4.9971 N.ar    1  UNL1       -0.2743
     18 C          22.6620   76.6287    5.0345 C.ar    1  UNL1        0.2626
     19 C          21.5624   76.4345    4.1642 C.ar    1  UNL1        0.0795
     20 C          21.5769   75.3889    3.3110 C.ar    1  UNL1        0.0869
     21 O          24.6224   73.9565    4.1159 O.2     1  UNL1       -0.2464
     22 O          22.6735   77.5678    5.8106 O.2     1  UNL1       -0.2670
     23 H          24.4529   75.8908    5.5905 H       1  UNL1        0.1734
     24 O          22.6220   72.1715   -4.7113 O.3     1  UNL1       -0.2703
     25 P          21.6502   73.0119   -5.6821 P.3     1  UNL1        0.2208
     26 O          21.3619   74.4569   -5.0320 O.3     1  UNL1       -0.4371
     27 O          22.2989   73.1852   -7.0002 O.2     1  UNL1       -0.5170
     28 O          20.2608   72.2194   -5.8672 O.3     1  UNL1       -0.2865
     29 C          19.0699   72.8397   -6.3554 C.3     1  UNL1        0.2611
     30 C          17.8491   72.0505   -5.8764 C.3     1  UNL1        0.1582
     31 C          17.9075   70.6342   -6.4571 C.3     1  UNL1        0.1625
     32 C          17.9789   70.7227   -7.9840 C.3     1  UNL1        0.1686
     33 C          19.1951   71.5633   -8.3819 C.3     1  UNL1        0.1760
     34 O          16.7341   69.9130   -6.0748 O.3     1  UNL1       -0.3801
     35 O          16.7893   71.3368   -8.4830 O.3     1  UNL1       -0.3794
     36 O          19.0938   72.8574   -7.7842 O.3     1  UNL1       -0.3263
     37 H          16.7045   69.0057   -6.4082 H       1  UNL1        0.2105
     38 H          16.7662   71.4263   -9.4461 H       1  UNL1        0.2105
     39 C          16.6952   72.0440   -3.7302 C.2     1  UNL1        0.2231
     40 C          16.7006   71.9716   -2.2258 C.3     1  UNL1        0.0946
     41 N          17.8553   71.9803   -4.4130 N.am    1  UNL1       -0.2994
     42 O          15.6459   72.1598   -4.3283 O.2     1  UNL1       -0.2751
     43 H          18.6945   71.8887   -3.9351 H       1  UNL1        0.1496
     44 C          19.2397   71.7065   -9.9044 C.3     1  UNL1        0.1693
     45 O          18.8856   70.4620  -10.5112 O.3     1  UNL1       -0.3794
     46 H          18.8929   70.4790  -11.4780 H       1  UNL1        0.2105
@<TRIPOS>BOND
     1    29    30    1
     2    30    41    1
     3    30    31    1
     4    31    34    1
     5    31    32    1
     6    32    35    1
     7    32    33    1
     8    33    36    1
     9    33    44    1
    10    39    40    1
    11    39    42    2
    12    39    41   am
    13    41    43    1
    14    29    28    1
    15    34    37    1
    16    35    38    1
    17    29    36    1
    18    44    45    1
    19    45    46    1
    20    15     6    1
    21    15    16   ar
    22    16    21    2
    23    16    17   ar
    24    17    23    1
    25    17    18   ar
    26    18    19   ar
    27    19    20   ar
    28    15    20   ar
    29    18    22    2
    30     6     7    1
    31     6    11    1
    32     7     9    1
    33     7     8    1
    34     8    13    1
    35     9    10    1
    36     9    12    1
    37    10     5    1
    38    10    11    1
    39    12    14    1
    40     5     4    1
    41     4     1    1
    42     1     2    1
    43     1    24    1
    44     1     3    2
    45    24    25    1
    46    28    25    1
    47    25    26    1
    48    25    27    2
@<TRIPOS>MOLECULE
UD2
 46 48 0 0 0
SMALL
GASTEIGER

@<TRIPOS>ATOM
      1 P          21.9805   73.2520   -7.1587 P.3     1  UNL1        0.2189
      2 O          20.8996   74.3722   -6.7487 O.3     1  UNL1       -0.4371
      3 O          21.3011   72.1469   -7.8699 O.2     1  UNL1       -0.5170
      4 O          23.0928   73.9067   -8.1220 O.3     1  UNL1       -0.3112
      5 C          22.8580   74.1841   -9.5038 C.3     1  UNL1        0.1811
      6 C          25.0956   75.0295  -12.1898 C.3     1  UNL1        0.2383
      7 C          24.0987   76.2144  -12.1256 C.3     1  UNL1        0.1895
      8 O          24.7259   77.4314  -12.5346 O.3     1  UNL1       -0.3779
      9 C          23.7402   76.2567  -10.6199 C.3     1  UNL1        0.1713
     10 C          24.0977   74.8482  -10.1081 C.3     1  UNL1        0.1764
     11 O          24.5588   74.0874  -11.2359 O.3     1  UNL1       -0.3308
     12 O          24.5215   77.2465   -9.9486 O.3     1  UNL1       -0.3794
     13 H          24.1423   78.2019  -12.5120 H       1  UNL1        0.2106
     14 H          24.3799   78.1463  -10.2721 H       1  UNL1        0.2105
     15 N          25.1189   74.4472  -13.5335 N.ar    1  UNL1       -0.2551
     16 C          24.3260   73.3991  -13.8194 C.ar    1  UNL1        0.3323
     17 N          24.3270   72.8439  -15.0457 N.ar    1  UNL1       -0.2743
     18 C          25.1278   73.3358  -16.0128 C.ar    1  UNL1        0.2626
     19 C          25.9667   74.4395  -15.7261 C.ar    1  UNL1        0.0795
     20 C          25.9422   74.9790  -14.4892 C.ar    1  UNL1        0.0869
     21 O          23.5987   72.9453  -12.9572 O.2     1  UNL1       -0.2464
     22 O          25.1293   72.8345  -17.1233 O.2     1  UNL1       -0.2670
     23 H          23.7500   72.0879  -15.2346 H       1  UNL1        0.1734
     24 O          22.6908   72.6800   -5.8314 O.3     1  UNL1       -0.2703
     25 P          22.2189   72.4928   -4.3032 P.3     1  UNL1        0.2208
     26 O          23.4143   71.8318   -3.4501 O.3     1  UNL1       -0.4371
     27 O          21.8739   73.8114   -3.7282 O.2     1  UNL1       -0.5170
     28 O          20.9284   71.5311   -4.2541 O.3     1  UNL1       -0.2865
     29 C          19.6262   71.9937   -3.8913 C.3     1  UNL1        0.2611
     30 C          19.0460   71.0863   -2.8038 C.3     1  UNL1        0.1582
     31 C          18.8970   69.6672   -3.3609 C.3     1  UNL1        0.1625
     32 C          18.0150   69.7113   -4.6117 C.3     1  UNL1        0.1686
     33 C          18.6352   70.6719   -5.6298 C.3     1  UNL1        0.1760
     34 O          18.2875   68.8294   -2.3761 O.3     1  UNL1       -0.3801
     35 O          16.7079   70.1674   -4.2586 O.3     1  UNL1       -0.3794
     36 O          18.7745   71.9653   -5.0385 O.3     1  UNL1       -0.3263
     37 H          18.1630   67.9139   -2.6616 H       1  UNL1        0.2105
     38 H          16.0943   70.2209   -5.0047 H       1  UNL1        0.2105
     39 C          20.9353   70.1520   -1.5810 C.2     1  UNL1        0.2231
     40 C          21.8635   70.1317   -0.3950 C.3     1  UNL1        0.0946
     41 N          19.9483   71.0670   -1.6497 N.am    1  UNL1       -0.2994
     42 O          21.0758   69.3442   -2.4754 O.2     1  UNL1       -0.2751
     43 H          19.8350   71.7124   -0.9344 H       1  UNL1        0.1496
     44 C          17.7288   70.7674   -6.8585 C.3     1  UNL1        0.1693
     45 O          18.5118   71.1121   -8.0033 O.3     1  UNL1       -0.3794
     46 H          18.0011   71.1902   -8.8207 H       1  UNL1        0.2105
@<TRIPOS>BOND
     1    29    30    1
     2    30    41    1
     3    30    31    1
     4    31    34    1
     5    31    32    1
     6    32    35    1
     7    32    33    1
     8    33    36    1
     9    33    44    1
    10    39    40    1
    11    39    42    2
    12    39    41   am
    13    41    43    1
    14    29    28    1
    15    34    37    1
    16    35    38    1
    17    29    36    1
    18    44    45    1
    19    45    46    1
    20    15     6    1
    21    15    16   ar
    22    16    21    2
    23    16    17   ar
    24    17    23    1
    25    17    18   ar
    26    18    19   ar
    27    19    20   ar
    28    15    20   ar
    29    18    22    2
    30     6     7    1
    31     6    11    1
    32     7     9    1
    33     7     8    1
    34     8    13    1
    35     9    10    1
    36     9    12    1
    37    10     5    1
    38    10    11    1
    39    12    14    1
    40     5     4    1
    41     4     1    1
    42     1     2    1
    43     1    24    1
    44     1     3    2
    45    24    25    1
    46    28    25    1
    47    25    26    1
    48    25    27    2
@<TRIPOS>MOLECULE
UD2
 46 48 0 0 0
SMALL
GASTEIGER

@<TRIPOS>ATOM
      1 P          23.0084   72.4330   -3.6308 P.3     1  UNL1        0.2189
      2 O          23.5368   70.9485   -3.3015 O.3     1  UNL1       -0.4371
      3 O          21.7753   72.7010   -2.8586 O.2     1  UNL1       -0.5170
      4 O          24.1388   73.5067   -3.2267 O.3     1  UNL1       -0.3112
      5 C          24.0618   74.8879   -3.5841 C.3     1  UNL1        0.1811
      6 C          23.8743   75.4408   -0.0351 C.3     1  UNL1        0.2383
      7 C          25.3774   75.1815   -0.3102 C.3     1  UNL1        0.1895
      8 O          26.1965   75.8972    0.6164 O.3     1  UNL1       -0.3779
      9 C          25.5469   75.7410   -1.7440 C.3     1  UNL1        0.1713
     10 C          24.1171   75.7459   -2.3177 C.3     1  UNL1        0.1764
     11 O          23.2514   75.1921   -1.3140 O.3     1  UNL1       -0.3308
     12 O          26.0742   77.0680   -1.7026 O.3     1  UNL1       -0.3794
     13 H          27.1454   75.7667    0.4853 H       1  UNL1        0.2106
     14 H          26.9491   77.1319   -1.2964 H       1  UNL1        0.2105
     15 N          23.3670   74.5106    0.9760 N.ar    1  UNL1       -0.2551
     16 C          23.4208   74.8463    2.2772 C.ar    1  UNL1        0.3323
     17 N          22.9621   74.0107    3.2278 N.ar    1  UNL1       -0.2743
     18 C          22.4364   72.8169    2.8859 C.ar    1  UNL1        0.2626
     19 C          22.3725   72.4510    1.5198 C.ar    1  UNL1        0.0795
     20 C          22.8360   73.3100    0.5877 C.ar    1  UNL1        0.0869
     21 O          23.8921   75.9196    2.6000 O.2     1  UNL1       -0.2464
     22 O          22.0205   72.0599    3.7453 O.2     1  UNL1       -0.2670
     23 H          23.0096   74.2679    4.1615 H       1  UNL1        0.1734
     24 O          22.6930   72.5537   -5.2053 O.3     1  UNL1       -0.2703
     25 P          21.3801   72.9343   -6.0564 P.3     1  UNL1        0.2208
     26 O          21.1632   74.5298   -6.0227 O.3     1  UNL1       -0.4371
     27 O          21.5537   72.4902   -7.4568 O.2     1  UNL1       -0.5170
     28 O          20.0956   72.2040   -5.4166 O.3     1  UNL1       -0.2865
     29 C          19.6163   70.9358   -5.8674 C.3     1  UNL1        0.2611
     30 C          18.2093   71.0979   -6.4478 C.3     1  UNL1        0.1582
     31 C          17.2648   71.5869   -5.3453 C.3     1  UNL1        0.1625
     32 C          17.3012   70.5949   -4.1796 C.3     1  UNL1        0.1686
     33 C          18.7436   70.4522   -3.6866 C.3     1  UNL1        0.1760
     34 O          15.9338   71.6709   -5.8597 O.3     1  UNL1       -0.3801
     35 O          16.8181   69.3240   -4.6188 O.3     1  UNL1       -0.3794
     36 O          19.5746   70.0244   -4.7675 O.3     1  UNL1       -0.3263
     37 H          15.2816   71.9756   -5.2141 H       1  UNL1        0.2105
     38 H          16.8138   68.6447   -3.9299 H       1  UNL1        0.2105
     39 C          18.5115   71.6781   -8.7950 C.2     1  UNL1        0.2231
     40 C          18.5421   72.6842   -9.9155 C.3     1  UNL1        0.0946
     41 N          18.2391   72.0772   -7.5370 N.am    1  UNL1       -0.2994
     42 O          18.7322   70.5073   -9.0247 O.2     1  UNL1       -0.2751
     43 H          18.0635   73.0133   -7.3528 H       1  UNL1        0.1496
     44 C          18.7975   69.4176   -2.5609 C.3     1  UNL1        0.1693
     45 O          20.0042   69.5874   -1.8143 O.3     1  UNL1       -0.3794
     46 H          20.1058   68.9634   -1.0826 H       1  UNL1        0.2105
@<TRIPOS>BOND
     1    29    30    1
     2    30    41    1
     3    30    31    1
     4    31    34    1
     5    31    32    1
     6    32    35    1
     7    32    33    1
     8    33    36    1
     9    33    44    1
    10    39    40    1
    11    39    42    2
    12    39    41   am
    13    41    43    1
    14    29    28    1
    15    34    37    1
    16    35    38    1
    17    29    36    1
    18    44    45    1
    19    45    46    1
    20    15     6    1
    21    15    16   ar
    22    16    21    2
    23    16    17   ar
    24    17    23    1
    25    17    18   ar
    26    18    19   ar
    27    19    20   ar
    28    15    20   ar
    29    18    22    2
    30     6     7    1
    31     6    11    1
    32     7     9    1
    33     7     8    1
    34     8    13    1
    35     9    10    1
    36     9    12    1
    37    10     5    1
    38    10    11    1
    39    12    14    1
    40     5     4    1
    41     4     1    1
    42     1     2    1
    43     1    24    1
    44     1     3    2
    45    24    25    1
    46    28    25    1
    47    25    26    1
    48    25    27    2
@<TRIPOS>MOLECULE
UD2
 46 48 0 0 0
SMALL
GASTEIGER

@<TRIPOS>ATOM
      1 P          19.3365   70.4058   -2.9963 P.3     1  UNL1        0.2189
      2 O          20.2260   69.5392   -4.0206 O.3     1  UNL1       -0.4371
      3 O          19.0323   69.5941   -1.7974 O.2     1  UNL1       -0.5170
      4 O          20.1527   71.7236   -2.5593 O.3     1  UNL1       -0.3112
      5 C          20.1818   72.2100   -1.2161 C.3     1  UNL1        0.1811
      6 C          22.6716   72.2727    1.3787 C.3     1  UNL1        0.2383
      7 C          22.2980   70.7756    1.2332 C.3     1  UNL1        0.1895
      8 O          23.4141   69.9389    1.5432 O.3     1  UNL1       -0.3779
      9 C          21.9331   70.6758   -0.2682 C.3     1  UNL1        0.1713
     10 C          21.6110   72.1266   -0.6746 C.3     1  UNL1        0.1764
     11 O          21.7354   72.9386    0.5037 O.3     1  UNL1       -0.3308
     12 O          23.0425   70.1801   -1.0194 O.3     1  UNL1       -0.3794
     13 H          23.2299   68.9929    1.4672 H       1  UNL1        0.2106
     14 H          23.3259   69.2919   -0.7640 H       1  UNL1        0.2105
     15 N          22.4911   72.7173    2.7624 N.ar    1  UNL1       -0.2551
     16 C          21.3133   72.5144    3.3793 C.ar    1  UNL1        0.3323
     17 N          21.1193   72.9127    4.6505 N.ar    1  UNL1       -0.2743
     18 C          22.1115   73.5239    5.3291 C.ar    1  UNL1        0.2626
     19 C          23.3568   73.7430    4.6924 C.ar    1  UNL1        0.0795
     20 C          23.5248   73.3294    3.4188 C.ar    1  UNL1        0.0869
     21 O          20.4099   71.9643    2.7796 O.2     1  UNL1       -0.2464
     22 O          21.9374   73.8846    6.4798 O.2     1  UNL1       -0.2670
     23 H          20.2635   72.7597    5.0798 H       1  UNL1        0.1734
     24 O          17.9618   70.8403   -3.7138 O.3     1  UNL1       -0.2703
     25 P          17.5091   72.1194   -4.5808 P.3     1  UNL1        0.2208
     26 O          16.4070   71.6691   -5.6654 O.3     1  UNL1       -0.4371
     27 O          16.9285   73.1429   -3.6843 O.2     1  UNL1       -0.5170
     28 O          18.7895   72.7338   -5.3395 O.3     1  UNL1       -0.2865
     29 C          19.8917   71.9369   -5.7768 C.3     1  UNL1        0.2611
     30 C          21.0899   72.8413   -6.0751 C.3     1  UNL1        0.1582
     31 C          20.7258   73.7971   -7.2154 C.3     1  UNL1        0.1625
     32 C          20.2983   72.9783   -8.4366 C.3     1  UNL1        0.1686
     33 C          19.1302   72.0684   -8.0471 C.3     1  UNL1        0.1760
     34 O          21.8630   74.5957   -7.5502 O.3     1  UNL1       -0.3801
     35 O          21.3959   72.1815   -8.8856 O.3     1  UNL1       -0.3794
     36 O          19.5253   71.2270   -6.9618 O.3     1  UNL1       -0.3263
     37 H          21.7036   75.2259   -8.2662 H       1  UNL1        0.2105
     38 H          21.1958   71.6347   -9.6582 H       1  UNL1        0.2105
     39 C          22.6613   73.5172   -4.3397 C.2     1  UNL1        0.2231
     40 C          23.0114   74.3119   -3.1090 C.3     1  UNL1        0.0946
     41 N          21.4296   73.6144   -4.8778 N.am    1  UNL1       -0.2994
     42 O          23.4884   72.7890   -4.8474 O.2     1  UNL1       -0.2751
     43 H          20.7677   74.1957   -4.4717 H       1  UNL1        0.1496
     44 C          18.7359   71.2037   -9.2459 C.3     1  UNL1        0.1693
     45 O          18.8116   71.9827  -10.4416 O.3     1  UNL1       -0.3794
     46 H          18.5743   71.4974  -11.2436 H       1  UNL1        0.2105
@<TRIPOS>BOND
     1    29    30    1
     2    30    41    1
     3    30    31    1
     4    31    34    1
     5    31    32    1
     6    32    35    1
     7    32    33    1
     8    33    36    1
     9    33    44    1
    10    39    40    1
    11    39    42    2
    12    39    41   am
    13    41    43    1
    14    29    28    1
    15    34    37    1
    16    35    38    1
    17    29    36    1
    18    44    45    1
    19    45    46    1
    20    15     6    1
    21    15    16   ar
    22    16    21    2
    23    16    17   ar
    24    17    23    1
    25    17    18   ar
    26    18    19   ar
    27    19    20   ar
    28    15    20   ar
    29    18    22    2
    30     6     7    1
    31     6    11    1
    32     7     9    1
    33     7     8    1
    34     8    13    1
    35     9    10    1
    36     9    12    1
    37    10     5    1
    38    10    11    1
    39    12    14    1
    40     5     4    1
    41     4     1    1
    42     1     2    1
    43     1    24    1
    44     1     3    2
    45    24    25    1
    46    28    25    1
    47    25    26    1
    48    25    27    2
