@<TRIPOS>MOLECULE
UD2
 46 48 0 0 0
SMALL
GASTEIGER

@<TRIPOS>ATOM
      1 P          20.8034   71.6551   -2.6854 P.3     1  UNL1        0.2189
      2 O          21.3213   70.2316   -3.2300 O.3     1  UNL1       -0.4371
      3 O          21.6774   72.7302   -3.2043 O.2     1  UNL1       -0.5170
      4 O          19.2927   71.9034   -3.1854 O.3     1  UNL1       -0.3112
      5 C          18.1492   71.4478   -2.4599 C.3     1  UNL1        0.1811
      6 C          16.8501   70.5308   -5.6861 C.3     1  UNL1        0.2383
      7 C          17.1085   69.1799   -4.9717 C.3     1  UNL1        0.1895
      8 O          16.1806   68.1855   -5.4098 O.3     1  UNL1       -0.3779
      9 C          16.8661   69.5455   -3.4868 C.3     1  UNL1        0.1713
     10 C          17.0366   71.0761   -3.4432 C.3     1  UNL1        0.1764
     11 O          17.3914   71.5049   -4.7675 O.3     1  UNL1       -0.3308
     12 O          15.5434   69.1778   -3.0920 O.3     1  UNL1       -0.3794
     13 H          16.3022   67.3223   -4.9918 H       1  UNL1        0.2106
     14 H          15.3619   68.2305   -3.1566 H       1  UNL1        0.2105
     15 N          17.5578   70.5804   -6.9674 N.ar    1  UNL1       -0.2551
     16 C          16.8605   70.5277   -8.1162 C.ar    1  UNL1        0.3323
     17 N          17.4847   70.5711   -9.3081 N.ar    1  UNL1       -0.2743
     18 C          18.8283   70.6707   -9.3674 C.ar    1  UNL1        0.2626
     19 C          19.5747   70.7282   -8.1659 C.ar    1  UNL1        0.0795
     20 C          18.9225   70.6869   -6.9851 C.ar    1  UNL1        0.0869
     21 O          15.6485   70.4380   -8.0779 O.2     1  UNL1       -0.2464
     22 O          19.3945   70.7105  -10.4455 O.2     1  UNL1       -0.2670
     23 H          16.9669   70.5308  -10.1269 H       1  UNL1        0.1734
     24 O          20.8429   71.6609   -1.0755 O.3     1  UNL1       -0.2703
     25 P          21.9689   71.2965    0.0163 P.3     1  UNL1        0.2208
     26 O          21.4901   70.0210    0.8751 O.3     1  UNL1       -0.4371
     27 O          23.2392   70.9783   -0.6719 O.2     1  UNL1       -0.5170
     28 O          22.1903   72.5529    0.9987 O.3     1  UNL1       -0.2865
     29 C          22.2979   72.4224    2.4174 C.3     1  UNL1        0.2611
     30 C          22.0575   73.7831    3.0756 C.3     1  UNL1        0.1582
     31 C          23.1418   74.7622    2.6151 C.3     1  UNL1        0.1625
     32 C          24.5167   74.1845    2.9618 C.3     1  UNL1        0.1686
     33 C          24.6624   72.8079    2.3077 C.3     1  UNL1        0.1760
     34 O          22.9681   76.0147    3.2816 O.3     1  UNL1       -0.3801
     35 O          24.6368   74.0552    4.3796 O.3     1  UNL1       -0.3794
     36 O          23.6059   71.9558    2.7545 O.3     1  UNL1       -0.3263
     37 H          23.6215   76.6841    3.0365 H       1  UNL1        0.2105
     38 H          25.4852   73.6935    4.6718 H       1  UNL1        0.2105
     39 C          19.7813   74.4673    3.6128 C.2     1  UNL1        0.2231
     40 C          18.4272   74.9895    3.2099 C.3     1  UNL1        0.0946
     41 N          20.7405   74.2908    2.6828 N.am    1  UNL1       -0.2994
     42 O          20.0092   74.2052    4.7754 O.2     1  UNL1       -0.2751
     43 H          20.5584   74.4993    1.7531 H       1  UNL1        0.1496
     44 C          26.0099   72.1979    2.6983 C.3     1  UNL1        0.1693
     45 O          26.0982   70.8674    2.1844 O.3     1  UNL1       -0.3794
     46 H          26.9284   70.4183    2.3945 H       1  UNL1        0.2105
@<TRIPOS>BOND
     1    29    30    1
     2    30    41    1
     3    30    31    1
     4    31    34    1
     5    31    32    1
     6    32    35    1
     7    32    33    1
     8    33    36    1
     9    33    44    1
    10    39    40    1
    11    39    42    2
    12    39    41   am
    13    41    43    1
    14    29    28    1
    15    34    37    1
    16    35    38    1
    17    29    36    1
    18    44    45    1
    19    45    46    1
    20    15     6    1
    21    15    16   ar
    22    16    21    2
    23    16    17   ar
    24    17    23    1
    25    17    18   ar
    26    18    19   ar
    27    19    20   ar
    28    15    20   ar
    29    18    22    2
    30     6     7    1
    31     6    11    1
    32     7     9    1
    33     7     8    1
    34     8    13    1
    35     9    10    1
    36     9    12    1
    37    10     5    1
    38    10    11    1
    39    12    14    1
    40     5     4    1
    41     4     1    1
    42     1     2    1
    43     1    24    1
    44     1     3    2
    45    24    25    1
    46    28    25    1
    47    25    26    1
    48    25    27    2
@<TRIPOS>MOLECULE
UD2
 46 48 0 0 0
SMALL
GASTEIGER

@<TRIPOS>ATOM
      1 P          21.5111   71.6053   -2.4661 P.3     1  UNL1        0.2189
      2 O          22.8335   71.4570   -3.3721 O.3     1  UNL1       -0.4371
      3 O          21.2138   73.0395   -2.2573 O.2     1  UNL1       -0.5170
      4 O          20.2685   70.9025   -3.2115 O.3     1  UNL1       -0.3112
      5 C          19.1388   70.3773   -2.5120 C.3     1  UNL1        0.1811
      6 C          17.2945   70.4761   -5.5984 C.3     1  UNL1        0.2383
      7 C          17.1101   69.0270   -5.0804 C.3     1  UNL1        0.1895
      8 O          15.8467   68.4972   -5.4864 O.3     1  UNL1       -0.3779
      9 C          17.1597   69.2216   -3.5451 C.3     1  UNL1        0.1713
     10 C          17.8791   70.5713   -3.3597 C.3     1  UNL1        0.1764
     11 O          18.2380   71.0479   -4.6665 O.3     1  UNL1       -0.3308
     12 O          15.8379   69.2808   -3.0067 O.3     1  UNL1       -0.3794
     13 H          15.6848   67.5924   -5.1870 H       1  UNL1        0.2106
     14 H          15.3187   68.4776   -3.1475 H       1  UNL1        0.2105
     15 N          17.8464   70.4726   -6.9550 N.ar    1  UNL1       -0.2551
     16 C          17.0167   70.4131   -8.0118 C.ar    1  UNL1        0.3323
     17 N          17.4962   70.4082   -9.2697 N.ar    1  UNL1       -0.2743
     18 C          18.8255   70.4651   -9.4896 C.ar    1  UNL1        0.2626
     19 C          19.7104   70.5291   -8.3864 C.ar    1  UNL1        0.0795
     20 C          19.2018   70.5368   -7.1363 C.ar    1  UNL1        0.0869
     21 O          15.8158   70.3615   -7.8286 O.2     1  UNL1       -0.2464
     22 O          19.2607   70.4611  -10.6276 O.2     1  UNL1       -0.2670
     23 H          16.8840   70.3637  -10.0203 H       1  UNL1        0.1734
     24 O          21.7536   70.8942   -1.0418 O.3     1  UNL1       -0.2703
     25 P          22.6311   71.2632    0.2570 P.3     1  UNL1        0.2208
     26 O          21.9011   70.6967    1.5760 O.3     1  UNL1       -0.4371
     27 O          23.9730   70.6524    0.1358 O.2     1  UNL1       -0.5170
     28 O          22.7771   72.8628    0.3691 O.3     1  UNL1       -0.2865
     29 C          24.0392   73.5323    0.3533 C.3     1  UNL1        0.2611
     30 C          24.1553   74.4334    1.5851 C.3     1  UNL1        0.1582
     31 C          23.0606   75.5033    1.5293 C.3     1  UNL1        0.1625
     32 C          23.1947   76.2880    0.2214 C.3     1  UNL1        0.1686
     33 C          23.1156   75.3151   -0.9581 C.3     1  UNL1        0.1760
     34 O          23.2068   76.3940    2.6378 O.3     1  UNL1       -0.3801
     35 O          24.4520   76.9663    0.1982 O.3     1  UNL1       -0.3794
     36 O          24.1410   74.3283   -0.8292 O.3     1  UNL1       -0.3263
     37 H          22.5446   77.0981    2.6661 H       1  UNL1        0.2105
     38 H          24.6053   77.4844   -0.6043 H       1  UNL1        0.2105
     39 C          22.7779   73.5147    3.3730 C.2     1  UNL1        0.2231
     40 C          22.6085   72.6866    4.6196 C.3     1  UNL1        0.0946
     41 N          23.9914   73.6278    2.7979 N.am    1  UNL1       -0.2994
     42 O          21.8216   74.0807    2.8859 O.2     1  UNL1       -0.2751
     43 H          24.7565   73.1763    3.1875 H       1  UNL1        0.1496
     44 C          23.3086   76.0838   -2.2667 C.3     1  UNL1        0.1693
     45 O          22.0978   76.7643   -2.6033 O.3     1  UNL1       -0.3794
     46 H          22.1473   77.2736   -3.4238 H       1  UNL1        0.2105
@<TRIPOS>BOND
     1    29    30    1
     2    30    41    1
     3    30    31    1
     4    31    34    1
     5    31    32    1
     6    32    35    1
     7    32    33    1
     8    33    36    1
     9    33    44    1
    10    39    40    1
    11    39    42    2
    12    39    41   am
    13    41    43    1
    14    29    28    1
    15    34    37    1
    16    35    38    1
    17    29    36    1
    18    44    45    1
    19    45    46    1
    20    15     6    1
    21    15    16   ar
    22    16    21    2
    23    16    17   ar
    24    17    23    1
    25    17    18   ar
    26    18    19   ar
    27    19    20   ar
    28    15    20   ar
    29    18    22    2
    30     6     7    1
    31     6    11    1
    32     7     9    1
    33     7     8    1
    34     8    13    1
    35     9    10    1
    36     9    12    1
    37    10     5    1
    38    10    11    1
    39    12    14    1
    40     5     4    1
    41     4     1    1
    42     1     2    1
    43     1    24    1
    44     1     3    2
    45    24    25    1
    46    28    25    1
    47    25    26    1
    48    25    27    2
@<TRIPOS>MOLECULE
UD2
 46 48 0 0 0
SMALL
GASTEIGER

@<TRIPOS>ATOM
      1 P          20.5289   72.4906   -1.5147 P.3     1  UNL1        0.2189
      2 O          20.9814   73.9160   -2.1102 O.3     1  UNL1       -0.4371
      3 O          19.6307   72.7011   -0.3581 O.2     1  UNL1       -0.5170
      4 O          19.7524   71.6560   -2.6524 O.3     1  UNL1       -0.3112
      5 C          18.8620   70.5789   -2.3547 C.3     1  UNL1        0.1811
      6 C          17.1336   70.5256   -5.5085 C.3     1  UNL1        0.2383
      7 C          17.0313   69.0710   -4.9834 C.3     1  UNL1        0.1895
      8 O          15.8244   68.4509   -5.4310 O.3     1  UNL1       -0.3779
      9 C          17.0091   69.2798   -3.4493 C.3     1  UNL1        0.1713
     10 C          17.6249   70.6779   -3.2506 C.3     1  UNL1        0.1764
     11 O          17.9989   71.1690   -4.5477 O.3     1  UNL1       -0.3308
     12 O          15.6669   69.2499   -2.9612 O.3     1  UNL1       -0.3794
     13 H          15.7148   67.5391   -5.1288 H       1  UNL1        0.2106
     14 H          15.2108   68.4113   -3.1133 H       1  UNL1        0.2105
     15 N          17.7354   70.5510   -6.8435 N.ar    1  UNL1       -0.2551
     16 C          16.9499   70.4499   -7.9305 C.ar    1  UNL1        0.3323
     17 N          17.4759   70.4701   -9.1696 N.ar    1  UNL1       -0.2743
     18 C          18.8078   70.5949   -9.3396 C.ar    1  UNL1        0.2626
     19 C          19.6464   70.7033   -8.2042 C.ar    1  UNL1        0.0795
     20 C          19.0916   70.6843   -6.9740 C.ar    1  UNL1        0.0869
     21 O          15.7472   70.3371   -7.7923 O.2     1  UNL1       -0.2464
     22 O          19.2850   70.6137  -10.4605 O.2     1  UNL1       -0.2670
     23 H          16.8953   70.3949   -9.9425 H       1  UNL1        0.1734
     24 O          21.8304   71.6687   -1.0414 O.3     1  UNL1       -0.2703
     25 P          22.4115   71.2248    0.3932 P.3     1  UNL1        0.2208
     26 O          21.5226   70.0176    0.9816 O.3     1  UNL1       -0.4371
     27 O          23.8128   70.7760    0.2408 O.2     1  UNL1       -0.5170
     28 O          22.3553   72.4759    1.4053 O.3     1  UNL1       -0.2865
     29 C          23.0274   73.7114    1.1540 C.3     1  UNL1        0.2611
     30 C          23.9395   74.0470    2.3364 C.3     1  UNL1        0.1582
     31 C          23.0841   74.2303    3.5939 C.3     1  UNL1        0.1625
     32 C          22.0431   75.3230    3.3353 C.3     1  UNL1        0.1686
     33 C          21.2039   74.9380    2.1141 C.3     1  UNL1        0.1760
     34 O          23.9199   74.6161    4.6875 O.3     1  UNL1       -0.3801
     35 O          22.7052   76.5647    3.0883 O.3     1  UNL1       -0.3794
     36 O          22.0628   74.7526    0.9872 O.3     1  UNL1       -0.3263
     37 H          23.4433   74.7491    5.5183 H       1  UNL1        0.2105
     38 H          22.1052   77.3036    2.9154 H       1  UNL1        0.2105
     39 C          26.1818   73.2254    2.8210 C.2     1  UNL1        0.2231
     40 C          27.1604   72.1011    3.0374 C.3     1  UNL1        0.0946
     41 N          24.8908   72.9528    2.5466 N.am    1  UNL1       -0.2994
     42 O          26.5554   74.3774    2.8935 O.2     1  UNL1       -0.2751
     43 H          24.5918   72.0318    2.4875 H       1  UNL1        0.1496
     44 C          20.2006   76.0529    1.8130 C.3     1  UNL1        0.1693
     45 O          19.4089   75.6892    0.6802 O.3     1  UNL1       -0.3794
     46 H          18.7495   76.3514    0.4315 H       1  UNL1        0.2105
@<TRIPOS>BOND
     1    29    30    1
     2    30    41    1
     3    30    31    1
     4    31    34    1
     5    31    32    1
     6    32    35    1
     7    32    33    1
     8    33    36    1
     9    33    44    1
    10    39    40    1
    11    39    42    2
    12    39    41   am
    13    41    43    1
    14    29    28    1
    15    34    37    1
    16    35    38    1
    17    29    36    1
    18    44    45    1
    19    45    46    1
    20    15     6    1
    21    15    16   ar
    22    16    21    2
    23    16    17   ar
    24    17    23    1
    25    17    18   ar
    26    18    19   ar
    27    19    20   ar
    28    15    20   ar
    29    18    22    2
    30     6     7    1
    31     6    11    1
    32     7     9    1
    33     7     8    1
    34     8    13    1
    35     9    10    1
    36     9    12    1
    37    10     5    1
    38    10    11    1
    39    12    14    1
    40     5     4    1
    41     4     1    1
    42     1     2    1
    43     1    24    1
    44     1     3    2
    45    24    25    1
    46    28    25    1
    47    25    26    1
    48    25    27    2
@<TRIPOS>MOLECULE
UD2
 46 48 0 0 0
SMALL
GASTEIGER

@<TRIPOS>ATOM
      1 P          20.7479   70.8733   -3.3512 P.3     1  UNL1        0.2189
      2 O          21.0954   70.3135   -1.8824 O.3     1  UNL1       -0.4371
      3 O          20.6218   69.7406   -4.2945 O.2     1  UNL1       -0.5170
      4 O          19.3589   71.6868   -3.3005 O.3     1  UNL1       -0.3112
      5 C          18.2081   71.2165   -2.5963 C.3     1  UNL1        0.1811
      6 C          16.8026   70.5425   -5.8378 C.3     1  UNL1        0.2383
      7 C          16.8964   69.1532   -5.1572 C.3     1  UNL1        0.1895
      8 O          15.8542   68.2896   -5.6150 O.3     1  UNL1       -0.3779
      9 C          16.7023   69.5093   -3.6629 C.3     1  UNL1        0.1713
     10 C          17.0572   71.0064   -3.5834 C.3     1  UNL1        0.1764
     11 O          17.4593   71.4212   -4.8985 O.3     1  UNL1       -0.3308
     12 O          15.3453   69.2950   -3.2712 O.3     1  UNL1       -0.3794
     13 H          15.8708   67.4081   -5.2183 H       1  UNL1        0.2106
     14 H          15.0502   68.3785   -3.3577 H       1  UNL1        0.2105
     15 N          17.5092   70.5372   -7.1207 N.ar    1  UNL1       -0.2551
     16 C          16.8075   70.5483   -8.2680 C.ar    1  UNL1        0.3323
     17 N          17.4306   70.5436   -9.4613 N.ar    1  UNL1       -0.2743
     18 C          18.7776   70.5293   -9.5235 C.ar    1  UNL1        0.2626
     19 C          19.5288   70.5185   -8.3236 C.ar    1  UNL1        0.0795
     20 C          18.8779   70.5278   -7.1413 C.ar    1  UNL1        0.0869
     21 O          15.5923   70.5615   -8.2270 O.2     1  UNL1       -0.2464
     22 O          19.3428   70.5254  -10.6029 O.2     1  UNL1       -0.2670
     23 H          16.9094   70.5506  -10.2789 H       1  UNL1        0.1734
     24 O          21.9259   71.8544   -3.8444 O.3     1  UNL1       -0.2703
     25 P          23.4126   72.1713   -3.3132 P.3     1  UNL1        0.2208
     26 O          24.1765   70.7884   -3.0007 O.3     1  UNL1       -0.4371
     27 O          24.1568   72.9224   -4.3478 O.2     1  UNL1       -0.5170
     28 O          23.3253   73.0525   -1.9683 O.3     1  UNL1       -0.2865
     29 C          22.1176   73.6694   -1.5188 C.3     1  UNL1        0.2611
     30 C          22.4331   75.0527   -0.9447 C.3     1  UNL1        0.1582
     31 C          23.3540   74.8943    0.2690 C.3     1  UNL1        0.1625
     32 C          22.6768   73.9809    1.2945 C.3     1  UNL1        0.1686
     33 C          22.3519   72.6385    0.6338 C.3     1  UNL1        0.1760
     34 O          23.5946   76.1753    0.8559 O.3     1  UNL1       -0.3801
     35 O          21.4701   74.5917    1.7549 O.3     1  UNL1       -0.3794
     36 O          21.5180   72.8596   -0.5054 O.3     1  UNL1       -0.3263
     37 H          24.1724   76.1501    1.6310 H       1  UNL1        0.2105
     38 H          20.9870   74.0665    2.4082 H       1  UNL1        0.2105
     39 C          24.4476   75.8811   -2.0369 C.2     1  UNL1        0.2231
     40 C          25.1361   76.7155   -3.0850 C.3     1  UNL1        0.0946
     41 N          23.1020   75.8647   -1.9643 N.am    1  UNL1       -0.2994
     42 O          25.1044   75.2232   -1.2572 O.2     1  UNL1       -0.2751
     43 H          22.5765   76.3914   -2.5868 H       1  UNL1        0.1496
     44 C          21.6213   71.7413    1.6347 C.3     1  UNL1        0.1693
     45 O          21.5758   70.4043    1.1321 O.3     1  UNL1       -0.3794
     46 H          21.1257   69.7790    1.7165 H       1  UNL1        0.2105
@<TRIPOS>BOND
     1    29    30    1
     2    30    41    1
     3    30    31    1
     4    31    34    1
     5    31    32    1
     6    32    35    1
     7    32    33    1
     8    33    36    1
     9    33    44    1
    10    39    40    1
    11    39    42    2
    12    39    41   am
    13    41    43    1
    14    29    28    1
    15    34    37    1
    16    35    38    1
    17    29    36    1
    18    44    45    1
    19    45    46    1
    20    15     6    1
    21    15    16   ar
    22    16    21    2
    23    16    17   ar
    24    17    23    1
    25    17    18   ar
    26    18    19   ar
    27    19    20   ar
    28    15    20   ar
    29    18    22    2
    30     6     7    1
    31     6    11    1
    32     7     9    1
    33     7     8    1
    34     8    13    1
    35     9    10    1
    36     9    12    1
    37    10     5    1
    38    10    11    1
    39    12    14    1
    40     5     4    1
    41     4     1    1
    42     1     2    1
    43     1    24    1
    44     1     3    2
    45    24    25    1
    46    28    25    1
    47    25    26    1
    48    25    27    2
@<TRIPOS>MOLECULE
UD2
 46 48 0 0 0
SMALL
GASTEIGER

@<TRIPOS>ATOM
      1 P          23.0114   71.7272   -2.8761 P.3     1  UNL1        0.2189
      2 O          23.5315   73.2315   -2.6351 O.3     1  UNL1       -0.4371
      3 O          24.1716   70.8195   -3.0135 O.2     1  UNL1       -0.5170
      4 O          22.1122   71.2632   -1.6232 O.3     1  UNL1       -0.3112
      5 C          21.4077   72.1845   -0.7887 C.3     1  UNL1        0.1811
      6 C          23.2005   71.8372    2.3099 C.3     1  UNL1        0.2383
      7 C          22.4534   73.1888    2.4413 C.3     1  UNL1        0.1895
      8 O          22.1185   73.4561    3.8045 O.3     1  UNL1       -0.3779
      9 C          21.1789   72.9393    1.5982 C.3     1  UNL1        0.1713
     10 C          21.5615   71.7662    0.6756 C.3     1  UNL1        0.1764
     11 O          22.9329   71.4370    0.9484 O.3     1  UNL1       -0.3308
     12 O          20.0853   72.5760    2.4425 O.3     1  UNL1       -0.3794
     13 H          21.6502   74.2912    3.9382 H       1  UNL1        0.2106
     14 H          19.8401   73.2561    3.0842 H       1  UNL1        0.2105
     15 N          24.6382   72.0199    2.5213 N.ar    1  UNL1       -0.2551
     16 C          25.4511   70.9486    2.5356 C.ar    1  UNL1        0.3323
     17 N          26.7763   71.0869    2.7279 N.ar    1  UNL1       -0.2743
     18 C          27.3117   72.3114    2.9085 C.ar    1  UNL1        0.2626
     19 C          26.4678   73.4480    2.8947 C.ar    1  UNL1        0.0795
     20 C          25.1436   73.2802    2.6956 C.ar    1  UNL1        0.0869
     21 O          24.9821   69.8385    2.3739 O.2     1  UNL1       -0.2464
     22 O          28.5110   72.4380    3.0822 O.2     1  UNL1       -0.2670
     23 H          27.3479   70.3038    2.7366 H       1  UNL1        0.1734
     24 O          22.1259   71.6742   -4.2202 O.3     1  UNL1       -0.2703
     25 P          21.3233   72.7783   -5.0744 P.3     1  UNL1        0.2208
     26 O          21.1964   74.1337   -4.2138 O.3     1  UNL1       -0.4371
     27 O          22.0541   73.0583   -6.3297 O.2     1  UNL1       -0.5170
     28 O          19.8524   72.2228   -5.4216 O.3     1  UNL1       -0.2865
     29 C          19.5314   70.8308   -5.4450 C.3     1  UNL1        0.2611
     30 C          18.4714   70.5686   -6.5175 C.3     1  UNL1        0.1582
     31 C          17.1942   71.3345   -6.1589 C.3     1  UNL1        0.1625
     32 C          16.7284   70.9047   -4.7651 C.3     1  UNL1        0.1686
     33 C          17.8559   71.1541   -3.7599 C.3     1  UNL1        0.1760
     34 O          16.1749   71.0371   -7.1159 O.3     1  UNL1       -0.3801
     35 O          16.3992   69.5145   -4.7791 O.3     1  UNL1       -0.3794
     36 O          19.0231   70.4382   -4.1683 O.3     1  UNL1       -0.3263
     37 H          15.3365   71.4899   -6.9504 H       1  UNL1        0.2105
     38 H          16.0961   69.1728   -3.9262 H       1  UNL1        0.2105
     39 C          18.7726   70.2708   -8.9172 C.2     1  UNL1        0.2231
     40 C          19.2822   70.7401  -10.2545 C.3     1  UNL1        0.0946
     41 N          18.9676   71.0257   -7.8180 N.am    1  UNL1       -0.2994
     42 O          18.1861   69.2123   -8.8288 O.2     1  UNL1       -0.2751
     43 H          19.4374   71.8715   -7.8880 H       1  UNL1        0.1496
     44 C          17.4200   70.6720   -2.3750 C.3     1  UNL1        0.1693
     45 O          18.5327   70.0755   -1.7054 O.3     1  UNL1       -0.3794
     46 H          18.3289   69.7464   -0.8193 H       1  UNL1        0.2105
@<TRIPOS>BOND
     1    29    30    1
     2    30    41    1
     3    30    31    1
     4    31    34    1
     5    31    32    1
     6    32    35    1
     7    32    33    1
     8    33    36    1
     9    33    44    1
    10    39    40    1
    11    39    42    2
    12    39    41   am
    13    41    43    1
    14    29    28    1
    15    34    37    1
    16    35    38    1
    17    29    36    1
    18    44    45    1
    19    45    46    1
    20    15     6    1
    21    15    16   ar
    22    16    21    2
    23    16    17   ar
    24    17    23    1
    25    17    18   ar
    26    18    19   ar
    27    19    20   ar
    28    15    20   ar
    29    18    22    2
    30     6     7    1
    31     6    11    1
    32     7     9    1
    33     7     8    1
    34     8    13    1
    35     9    10    1
    36     9    12    1
    37    10     5    1
    38    10    11    1
    39    12    14    1
    40     5     4    1
    41     4     1    1
    42     1     2    1
    43     1    24    1
    44     1     3    2
    45    24    25    1
    46    28    25    1
    47    25    26    1
    48    25    27    2
@<TRIPOS>MOLECULE
UD2
 46 48 0 0 0
SMALL
GASTEIGER

@<TRIPOS>ATOM
      1 P          20.5673   70.9640   -3.0347 P.3     1  UNL1        0.2189
      2 O          20.5934   70.3712   -1.5383 O.3     1  UNL1       -0.4371
      3 O          20.6784   69.8548   -4.0074 O.2     1  UNL1       -0.5170
      4 O          19.1837   71.7524   -3.2753 O.3     1  UNL1       -0.3112
      5 C          17.9782   71.4378   -2.5758 C.3     1  UNL1        0.1811
      6 C          16.7157   70.5636   -5.8283 C.3     1  UNL1        0.2383
      7 C          16.8899   69.2065   -5.1002 C.3     1  UNL1        0.1895
      8 O          15.9256   68.2557   -5.5559 O.3     1  UNL1       -0.3779
      9 C          16.6292   69.5936   -3.6239 C.3     1  UNL1        0.1713
     10 C          16.8733   71.1143   -3.5846 C.3     1  UNL1        0.1764
     11 O          17.2812   71.5163   -4.9019 O.3     1  UNL1       -0.3308
     12 O          15.2806   69.2936   -3.2602 O.3     1  UNL1       -0.3794
     13 H          15.9943   67.3904   -5.1301 H       1  UNL1        0.2106
     14 H          15.0546   68.3559   -3.3240 H       1  UNL1        0.2105
     15 N          17.4563   70.5698   -7.0918 N.ar    1  UNL1       -0.2551
     16 C          16.7855   70.5859   -8.2574 C.ar    1  UNL1        0.3323
     17 N          17.4404   70.5918   -9.4336 N.ar    1  UNL1       -0.2743
     18 C          18.7886   70.5835   -9.4598 C.ar    1  UNL1        0.2626
     19 C          19.5075   70.5676   -8.2403 C.ar    1  UNL1        0.0795
     20 C          18.8252   70.5663   -7.0759 C.ar    1  UNL1        0.0869
     21 O          15.5697   70.5938   -8.2489 O.2     1  UNL1       -0.2464
     22 O          19.3825   70.5893  -10.5236 O.2     1  UNL1       -0.2670
     23 H          16.9412   70.6022  -10.2648 H       1  UNL1        0.1734
     24 O          21.8030   71.9775   -3.2324 O.3     1  UNL1       -0.2703
     25 P          23.2795   72.0772   -2.5976 P.3     1  UNL1        0.2208
     26 O          24.1523   70.8081   -3.0681 O.3     1  UNL1       -0.4371
     27 O          23.9320   73.3222   -3.0588 O.2     1  UNL1       -0.5170
     28 O          23.1731   72.0900   -0.9910 O.3     1  UNL1       -0.2865
     29 C          23.2777   73.2840   -0.2134 C.3     1  UNL1        0.2611
     30 C          23.3845   72.9206    1.2696 C.3     1  UNL1        0.1582
     31 C          22.1068   72.1945    1.7018 C.3     1  UNL1        0.1625
     32 C          20.8998   73.0898    1.4091 C.3     1  UNL1        0.1686
     33 C          20.8887   73.4467   -0.0797 C.3     1  UNL1        0.1760
     34 O          22.1666   71.9163    3.1026 O.3     1  UNL1       -0.3801
     35 O          20.9918   74.2849    2.1866 O.3     1  UNL1       -0.3794
     36 O          22.1171   74.0913   -0.4225 O.3     1  UNL1       -0.3263
     37 H          21.3884   71.4557    3.4453 H       1  UNL1        0.2105
     38 H          20.2582   74.9008    2.0507 H       1  UNL1        0.2105
     39 C          25.4785   72.3691    2.3871 C.2     1  UNL1        0.2231
     40 C          26.6664   71.4681    2.6006 C.3     1  UNL1        0.0946
     41 N          24.5399   72.0437    1.4765 N.am    1  UNL1       -0.2994
     42 O          25.3661   73.3888    3.0351 O.2     1  UNL1       -0.2751
     43 H          24.6298   71.2291    0.9575 H       1  UNL1        0.1496
     44 C          19.7194   74.3899   -0.3691 C.3     1  UNL1        0.1693
     45 O          20.1509   75.7442   -0.2211 O.3     1  UNL1       -0.3794
     46 H          19.4594   76.3986   -0.3898 H       1  UNL1        0.2105
@<TRIPOS>BOND
     1    29    30    1
     2    30    41    1
     3    30    31    1
     4    31    34    1
     5    31    32    1
     6    32    35    1
     7    32    33    1
     8    33    36    1
     9    33    44    1
    10    39    40    1
    11    39    42    2
    12    39    41   am
    13    41    43    1
    14    29    28    1
    15    34    37    1
    16    35    38    1
    17    29    36    1
    18    44    45    1
    19    45    46    1
    20    15     6    1
    21    15    16   ar
    22    16    21    2
    23    16    17   ar
    24    17    23    1
    25    17    18   ar
    26    18    19   ar
    27    19    20   ar
    28    15    20   ar
    29    18    22    2
    30     6     7    1
    31     6    11    1
    32     7     9    1
    33     7     8    1
    34     8    13    1
    35     9    10    1
    36     9    12    1
    37    10     5    1
    38    10    11    1
    39    12    14    1
    40     5     4    1
    41     4     1    1
    42     1     2    1
    43     1    24    1
    44     1     3    2
    45    24    25    1
    46    28    25    1
    47    25    26    1
    48    25    27    2
@<TRIPOS>MOLECULE
UD2
 46 48 0 0 0
SMALL
GASTEIGER

@<TRIPOS>ATOM
      1 P          21.0710   71.2499   -0.3015 P.3     1  UNL1        0.2189
      2 O          20.7353   72.6969    0.3188 O.3     1  UNL1       -0.4371
      3 O          21.2672   70.2760    0.7949 O.2     1  UNL1       -0.5170
      4 O          19.8490   70.7693   -1.2340 O.3     1  UNL1       -0.3112
      5 C          18.9645   71.6817   -1.8872 C.3     1  UNL1        0.1811
      6 C          17.4090   70.1442   -4.7426 C.3     1  UNL1        0.2383
      7 C          18.2355   69.0072   -4.0898 C.3     1  UNL1        0.1895
      8 O          17.6160   67.7378   -4.3053 O.3     1  UNL1       -0.3779
      9 C          18.1946   69.3945   -2.5912 C.3     1  UNL1        0.1713
     10 C          17.8594   70.8982   -2.5999 C.3     1  UNL1        0.1764
     11 O          17.7764   71.3101   -3.9736 O.3     1  UNL1       -0.3308
     12 O          17.1752   68.6583   -1.9133 O.3     1  UNL1       -0.3794
     13 H          18.0961   66.9944   -3.9161 H       1  UNL1        0.2106
     14 H          17.3050   67.7005   -1.9280 H       1  UNL1        0.2105
     15 N          17.7845   70.3134   -6.1481 N.ar    1  UNL1       -0.2551
     16 C          16.8835   70.0598   -7.1138 C.ar    1  UNL1        0.3323
     17 N          17.2012   70.2067   -8.4137 N.ar    1  UNL1       -0.2743
     18 C          18.4365   70.6149   -8.7685 C.ar    1  UNL1        0.2626
     19 C          19.3947   70.8864   -7.7623 C.ar    1  UNL1        0.0795
     20 C          19.0474   70.7348   -6.4669 C.ar    1  UNL1        0.0869
     21 O          15.7657   69.6912   -6.8085 O.2     1  UNL1       -0.2464
     22 O          18.7253   70.7486   -9.9446 O.2     1  UNL1       -0.2670
     23 H          16.5399   70.0184   -9.0973 H       1  UNL1        0.1734
     24 O          22.4145   71.3426   -1.1843 O.3     1  UNL1       -0.2703
     25 P          22.7257   71.2382   -2.7608 P.3     1  UNL1        0.2208
     26 O          24.2404   70.7352   -2.9762 O.3     1  UNL1       -0.4371
     27 O          21.7930   70.2745   -3.3852 O.2     1  UNL1       -0.5170
     28 O          22.5383   72.6852   -3.4417 O.3     1  UNL1       -0.2865
     29 C          23.5659   73.3289   -4.1974 C.3     1  UNL1        0.2611
     30 C          23.4873   74.8422   -3.9818 C.3     1  UNL1        0.1582
     31 C          22.1394   75.3536   -4.4997 C.3     1  UNL1        0.1625
     32 C          21.9920   74.9689   -5.9744 C.3     1  UNL1        0.1686
     33 C          22.1283   73.4503   -6.1131 C.3     1  UNL1        0.1760
     34 O          22.0869   76.7762   -4.3697 O.3     1  UNL1       -0.3801
     35 O          23.0122   75.6124   -6.7402 O.3     1  UNL1       -0.3794
     36 O          23.3901   73.0367   -5.5852 O.3     1  UNL1       -0.3263
     37 H          21.2588   77.1686   -4.6786 H       1  UNL1        0.2105
     38 H          22.9799   75.4125   -7.6862 H       1  UNL1        0.2105
     39 C          22.5037   75.2018   -1.7816 C.2     1  UNL1        0.2231
     40 C          22.6264   75.5073   -0.3119 C.3     1  UNL1        0.0946
     41 N          23.6074   75.1397   -2.5523 N.am    1  UNL1       -0.2994
     42 O          21.4106   75.0113   -2.2726 O.2     1  UNL1       -0.2751
     43 H          24.4815   75.2930   -2.1604 H       1  UNL1        0.1496
     44 C          22.0417   73.0636   -7.5907 C.3     1  UNL1        0.1693
     45 O          23.3024   73.3009   -8.2206 O.3     1  UNL1       -0.3794
     46 H          23.3209   73.0776   -9.1612 H       1  UNL1        0.2105
@<TRIPOS>BOND
     1    29    30    1
     2    30    41    1
     3    30    31    1
     4    31    34    1
     5    31    32    1
     6    32    35    1
     7    32    33    1
     8    33    36    1
     9    33    44    1
    10    39    40    1
    11    39    42    2
    12    39    41   am
    13    41    43    1
    14    29    28    1
    15    34    37    1
    16    35    38    1
    17    29    36    1
    18    44    45    1
    19    45    46    1
    20    15     6    1
    21    15    16   ar
    22    16    21    2
    23    16    17   ar
    24    17    23    1
    25    17    18   ar
    26    18    19   ar
    27    19    20   ar
    28    15    20   ar
    29    18    22    2
    30     6     7    1
    31     6    11    1
    32     7     9    1
    33     7     8    1
    34     8    13    1
    35     9    10    1
    36     9    12    1
    37    10     5    1
    38    10    11    1
    39    12    14    1
    40     5     4    1
    41     4     1    1
    42     1     2    1
    43     1    24    1
    44     1     3    2
    45    24    25    1
    46    28    25    1
    47    25    26    1
    48    25    27    2
@<TRIPOS>MOLECULE
UD2
 46 48 0 0 0
SMALL
GASTEIGER

@<TRIPOS>ATOM
      1 P          20.3256   72.5684   -1.8534 P.3     1  UNL1        0.2189
      2 O          21.1317   72.2952   -3.2198 O.3     1  UNL1       -0.4371
      3 O          19.5781   73.8401   -1.9668 O.2     1  UNL1       -0.5170
      4 O          19.2934   71.3608   -1.5889 O.3     1  UNL1       -0.3112
      5 C          19.1175   70.2749   -2.5007 C.3     1  UNL1        0.1811
      6 C          17.2708   70.4790   -5.5804 C.3     1  UNL1        0.2383
      7 C          17.0562   69.0235   -5.0931 C.3     1  UNL1        0.1895
      8 O          15.7812   68.5295   -5.5077 O.3     1  UNL1       -0.3779
      9 C          17.1126   69.1841   -3.5541 C.3     1  UNL1        0.1713
     10 C          17.8609   70.5139   -3.3415 C.3     1  UNL1        0.1764
     11 O          18.2278   71.0105   -4.6385 O.3     1  UNL1       -0.3308
     12 O          15.7931   69.2600   -3.0118 O.3     1  UNL1       -0.3794
     13 H          15.6004   67.6222   -5.2273 H       1  UNL1        0.2106
     14 H          15.2567   68.4712   -3.1687 H       1  UNL1        0.2105
     15 N          17.8203   70.4927   -6.9380 N.ar    1  UNL1       -0.2551
     16 C          16.9889   70.4420   -7.9939 C.ar    1  UNL1        0.3323
     17 N          17.4662   70.4529   -9.2526 N.ar    1  UNL1       -0.2743
     18 C          18.7949   70.5173   -9.4741 C.ar    1  UNL1        0.2626
     19 C          19.6815   70.5722   -8.3719 C.ar    1  UNL1        0.0795
     20 C          19.1751   70.5641   -7.1209 C.ar    1  UNL1        0.0869
     21 O          15.7886   70.3839   -7.8092 O.2     1  UNL1       -0.2464
     22 O          19.2281   70.5277  -10.6129 O.2     1  UNL1       -0.2670
     23 H          16.8529   70.4145  -10.0026 H       1  UNL1        0.1734
     24 O          21.3647   72.6637   -0.6269 O.3     1  UNL1       -0.2703
     25 P          22.0715   71.5754    0.3266 P.3     1  UNL1        0.2208
     26 O          21.1100   70.2927    0.4807 O.3     1  UNL1       -0.4371
     27 O          23.3586   71.1575   -0.2709 O.2     1  UNL1       -0.5170
     28 O          22.3377   72.2243    1.7760 O.3     1  UNL1       -0.2865
     29 C          22.2078   73.6227    2.0387 C.3     1  UNL1        0.2611
     30 C          23.5547   74.3130    1.8104 C.3     1  UNL1        0.1582
     31 C          24.5818   73.7480    2.7964 C.3     1  UNL1        0.1625
     32 C          24.0641   73.9432    4.2241 C.3     1  UNL1        0.1686
     33 C          22.6972   73.2669    4.3593 C.3     1  UNL1        0.1760
     34 O          25.8235   74.4387    2.6400 O.3     1  UNL1       -0.3801
     35 O          23.9360   75.3394    4.4990 O.3     1  UNL1       -0.3794
     36 O          21.7982   73.8163    3.3940 O.3     1  UNL1       -0.3263
     37 H          26.5218   74.1310    3.2341 H       1  UNL1        0.2105
     38 H          23.6111   75.5376    5.3884 H       1  UNL1        0.2105
     39 C          24.1219   75.0906   -0.4282 C.2     1  UNL1        0.2231
     40 C          24.5852   74.8369   -1.8387 C.3     1  UNL1        0.0946
     41 N          24.0052   74.0653    0.4385 N.am    1  UNL1       -0.2994
     42 O          23.8534   76.2188   -0.0714 O.2     1  UNL1       -0.2751
     43 H          24.2188   73.1630    0.1534 H       1  UNL1        0.1496
     44 C          22.1459   73.5084    5.7658 C.3     1  UNL1        0.1693
     45 O          23.2285   73.5882    6.6953 O.3     1  UNL1       -0.3794
     46 H          22.9523   73.7406    7.6094 H       1  UNL1        0.2105
@<TRIPOS>BOND
     1    29    30    1
     2    30    41    1
     3    30    31    1
     4    31    34    1
     5    31    32    1
     6    32    35    1
     7    32    33    1
     8    33    36    1
     9    33    44    1
    10    39    40    1
    11    39    42    2
    12    39    41   am
    13    41    43    1
    14    29    28    1
    15    34    37    1
    16    35    38    1
    17    29    36    1
    18    44    45    1
    19    45    46    1
    20    15     6    1
    21    15    16   ar
    22    16    21    2
    23    16    17   ar
    24    17    23    1
    25    17    18   ar
    26    18    19   ar
    27    19    20   ar
    28    15    20   ar
    29    18    22    2
    30     6     7    1
    31     6    11    1
    32     7     9    1
    33     7     8    1
    34     8    13    1
    35     9    10    1
    36     9    12    1
    37    10     5    1
    38    10    11    1
    39    12    14    1
    40     5     4    1
    41     4     1    1
    42     1     2    1
    43     1    24    1
    44     1     3    2
    45    24    25    1
    46    28    25    1
    47    25    26    1
    48    25    27    2
@<TRIPOS>MOLECULE
UD2
 46 48 0 0 0
SMALL
GASTEIGER

@<TRIPOS>ATOM
      1 P          23.2491   71.8197   -3.2914 P.3     1  UNL1        0.2189
      2 O          23.8469   72.8074   -4.4132 O.3     1  UNL1       -0.4371
      3 O          24.1851   70.6946   -3.0745 O.2     1  UNL1       -0.5170
      4 O          23.0542   72.6291   -1.9128 O.3     1  UNL1       -0.3112
      5 C          23.0828   74.0557   -1.8385 C.3     1  UNL1        0.1811
      6 C          21.4437   74.6958    1.2984 C.3     1  UNL1        0.2383
      7 C          22.1694   76.0228    0.9600 C.3     1  UNL1        0.1895
      8 O          21.4534   77.1434    1.4828 O.3     1  UNL1       -0.3779
      9 C          22.1418   76.0230   -0.5881 C.3     1  UNL1        0.1713
     10 C          21.9274   74.5437   -0.9611 C.3     1  UNL1        0.1764
     11 O          21.8936   73.7941    0.2639 O.3     1  UNL1       -0.3308
     12 O          21.0591   76.8222   -1.0676 O.3     1  UNL1       -0.3794
     13 H          21.8682   77.9967    1.2975 H       1  UNL1        0.2106
     14 H          21.1124   77.7527   -0.8111 H       1  UNL1        0.2105
     15 N          21.8481   74.2090    2.6192 N.ar    1  UNL1       -0.2551
     16 C          21.2887   73.0922    3.1179 C.ar    1  UNL1        0.3323
     17 N          21.6411   72.6221    4.3291 N.ar    1  UNL1       -0.2743
     18 C          22.5686   73.2684    5.0644 C.ar    1  UNL1        0.2626
     19 C          23.1663   74.4447    4.5513 C.ar    1  UNL1        0.0795
     20 C          22.7970   74.8909    3.3323 C.ar    1  UNL1        0.0869
     21 O          20.4512   72.4990    2.4658 O.2     1  UNL1       -0.2464
     22 O          22.8888   72.8438    6.1606 O.2     1  UNL1       -0.2670
     23 H          21.2271   71.8161    4.6741 H       1  UNL1        0.1734
     24 O          21.8263   71.2476   -3.7828 O.3     1  UNL1       -0.2703
     25 P          20.3069   71.4596   -3.2936 P.3     1  UNL1        0.2208
     26 O          20.0781   70.6816   -1.9022 O.3     1  UNL1       -0.4371
     27 O          20.0478   72.9030   -3.0994 O.2     1  UNL1       -0.5170
     28 O          19.2988   70.8779   -4.4063 O.3     1  UNL1       -0.2865
     29 C          18.4502   71.7101   -5.1991 C.3     1  UNL1        0.2611
     30 C          17.0729   71.0560   -5.3327 C.3     1  UNL1        0.1582
     31 C          17.2218   69.7163   -6.0603 C.3     1  UNL1        0.1625
     32 C          17.8845   69.9567   -7.4195 C.3     1  UNL1        0.1686
     33 C          19.2310   70.6533   -7.2053 C.3     1  UNL1        0.1760
     34 O          15.9315   69.1328   -6.2546 O.3     1  UNL1       -0.3801
     35 O          17.0407   70.7838   -8.2227 O.3     1  UNL1       -0.3794
     36 O          19.0250   71.8770   -6.4968 O.3     1  UNL1       -0.3263
     37 H          15.9505   68.2799   -6.7101 H       1  UNL1        0.2105
     38 H          17.3993   70.9783   -9.1000 H       1  UNL1        0.2105
     39 C          16.6733   69.6386   -3.3913 C.2     1  UNL1        0.2231
     40 C          16.0926   69.4048   -2.0214 C.3     1  UNL1        0.0946
     41 N          16.5075   70.8293   -4.0002 N.am    1  UNL1       -0.2994
     42 O          17.2908   68.7546   -3.9475 O.2     1  UNL1       -0.2751
     43 H          16.0130   71.5361   -3.5563 H       1  UNL1        0.1496
     44 C          19.8724   70.9509   -8.5620 C.3     1  UNL1        0.1693
     45 O          20.7556   72.0675   -8.4375 O.3     1  UNL1       -0.3794
     46 H          21.1985   72.3131   -9.2612 H       1  UNL1        0.2105
@<TRIPOS>BOND
     1    29    30    1
     2    30    41    1
     3    30    31    1
     4    31    34    1
     5    31    32    1
     6    32    35    1
     7    32    33    1
     8    33    36    1
     9    33    44    1
    10    39    40    1
    11    39    42    2
    12    39    41   am
    13    41    43    1
    14    29    28    1
    15    34    37    1
    16    35    38    1
    17    29    36    1
    18    44    45    1
    19    45    46    1
    20    15     6    1
    21    15    16   ar
    22    16    21    2
    23    16    17   ar
    24    17    23    1
    25    17    18   ar
    26    18    19   ar
    27    19    20   ar
    28    15    20   ar
    29    18    22    2
    30     6     7    1
    31     6    11    1
    32     7     9    1
    33     7     8    1
    34     8    13    1
    35     9    10    1
    36     9    12    1
    37    10     5    1
    38    10    11    1
    39    12    14    1
    40     5     4    1
    41     4     1    1
    42     1     2    1
    43     1    24    1
    44     1     3    2
    45    24    25    1
    46    28    25    1
    47    25    26    1
    48    25    27    2
@<TRIPOS>MOLECULE
UD2
 46 48 0 0 0
SMALL
GASTEIGER

@<TRIPOS>ATOM
      1 P          23.3444   71.9725   -3.0592 P.3     1  UNL1        0.2189
      2 O          24.2992   70.6816   -3.1750 O.3     1  UNL1       -0.4371
      3 O          23.8293   73.0291   -3.9743 O.2     1  UNL1       -0.5170
      4 O          21.8391   71.5642   -3.4605 O.3     1  UNL1       -0.3112
      5 C          20.9612   70.8659   -2.5755 C.3     1  UNL1        0.1811
      6 C          18.3286   70.7604   -5.0240 C.3     1  UNL1        0.2383
      7 C          18.2802   69.3707   -4.3396 C.3     1  UNL1        0.1895
      8 O          16.9478   68.8545   -4.3268 O.3     1  UNL1       -0.3779
      9 C          18.7594   69.6982   -2.9041 C.3     1  UNL1        0.1713
     10 C          19.5170   71.0312   -3.0550 C.3     1  UNL1        0.1764
     11 O          19.5014   71.3767   -4.4492 O.3     1  UNL1       -0.3308
     12 O          17.6416   69.8539   -2.0283 O.3     1  UNL1       -0.3794
     13 H          16.8660   67.9864   -3.9094 H       1  UNL1        0.2106
     14 H          17.0949   69.0614   -1.9424 H       1  UNL1        0.2105
     15 N          18.4789   70.6164   -6.4737 N.ar    1  UNL1       -0.2551
     16 C          17.3855   70.5155   -7.2503 C.ar    1  UNL1        0.3323
     17 N          17.4940   70.3821   -8.5855 N.ar    1  UNL1       -0.2743
     18 C          18.7099   70.3494   -9.1678 C.ar    1  UNL1        0.2626
     19 C          19.8694   70.4557   -8.3624 C.ar    1  UNL1        0.0795
     20 C          19.7309   70.5928   -7.0269 C.ar    1  UNL1        0.0869
     21 O          16.2828   70.5436   -6.7389 O.2     1  UNL1       -0.2464
     22 O          18.8095   70.2291  -10.3761 O.2     1  UNL1       -0.2670
     23 H          16.6954   70.3093   -9.1306 H       1  UNL1        0.1734
     24 O          23.3654   72.5218   -1.5456 O.3     1  UNL1       -0.2703
     25 P          22.9574   73.9195   -0.8579 P.3     1  UNL1        0.2208
     26 O          24.2198   74.9192   -0.8853 O.3     1  UNL1       -0.4371
     27 O          21.8323   74.5261   -1.6025 O.2     1  UNL1       -0.5170
     28 O          22.5129   73.6574    0.6674 O.3     1  UNL1       -0.2865
     29 C          22.7237   74.6071    1.7138 C.3     1  UNL1        0.2611
     30 C          23.0470   73.8700    3.0157 C.3     1  UNL1        0.1582
     31 C          21.8493   73.0006    3.4110 C.3     1  UNL1        0.1625
     32 C          20.6082   73.8880    3.5391 C.3     1  UNL1        0.1686
     33 C          20.3788   74.6245    2.2167 C.3     1  UNL1        0.1760
     34 O          22.1137   72.3653    4.6639 O.3     1  UNL1       -0.3801
     35 O          20.8066   74.8382    4.5875 O.3     1  UNL1       -0.3794
     36 O          21.5411   75.3896    1.8916 O.3     1  UNL1       -0.3263
     37 H          21.3959   71.7971    4.9755 H       1  UNL1        0.2105
     38 H          20.0580   75.4356    4.7246 H       1  UNL1        0.2105
     39 C          24.0720   71.7261    2.4769 C.2     1  UNL1        0.2231
     40 C          25.2820   70.8525    2.2731 C.3     1  UNL1        0.0946
     41 N          24.2244   73.0209    2.8178 N.am    1  UNL1       -0.2994
     42 O          22.9591   71.2641    2.3343 O.2     1  UNL1       -0.2751
     43 H          25.1139   73.3904    2.9329 H       1  UNL1        0.1496
     44 C          19.1753   75.5587    2.3555 C.3     1  UNL1        0.1693
     45 O          17.9992   74.7872    2.6083 O.3     1  UNL1       -0.3794
     46 H          17.1954   75.3155    2.7076 H       1  UNL1        0.2105
@<TRIPOS>BOND
     1    29    30    1
     2    30    41    1
     3    30    31    1
     4    31    34    1
     5    31    32    1
     6    32    35    1
     7    32    33    1
     8    33    36    1
     9    33    44    1
    10    39    40    1
    11    39    42    2
    12    39    41   am
    13    41    43    1
    14    29    28    1
    15    34    37    1
    16    35    38    1
    17    29    36    1
    18    44    45    1
    19    45    46    1
    20    15     6    1
    21    15    16   ar
    22    16    21    2
    23    16    17   ar
    24    17    23    1
    25    17    18   ar
    26    18    19   ar
    27    19    20   ar
    28    15    20   ar
    29    18    22    2
    30     6     7    1
    31     6    11    1
    32     7     9    1
    33     7     8    1
    34     8    13    1
    35     9    10    1
    36     9    12    1
    37    10     5    1
    38    10    11    1
    39    12    14    1
    40     5     4    1
    41     4     1    1
    42     1     2    1
    43     1    24    1
    44     1     3    2
    45    24    25    1
    46    28    25    1
    47    25    26    1
    48    25    27    2
@<TRIPOS>MOLECULE
UD2
 46 48 0 0 0
SMALL
GASTEIGER

@<TRIPOS>ATOM
      1 P          21.8189   72.3543   -5.9499 P.3     1  UNL1        0.2189
      2 O          23.0490   73.1411   -6.6276 O.3     1  UNL1       -0.4371
      3 O          20.6938   73.2900   -5.7325 O.2     1  UNL1       -0.5170
      4 O          21.3446   71.1611   -6.9220 O.3     1  UNL1       -0.3112
      5 C          20.5875   71.3835   -8.1131 C.3     1  UNL1        0.1811
      6 C          17.4470   70.1144   -6.9034 C.3     1  UNL1        0.2383
      7 C          17.0567   71.1556   -7.9831 C.3     1  UNL1        0.1895
      8 O          15.8327   70.7913   -8.6241 O.3     1  UNL1       -0.3779
      9 C          18.2461   71.0623   -8.9700 C.3     1  UNL1        0.1713
     10 C          19.3813   70.4413   -8.1338 C.3     1  UNL1        0.1764
     11 O          18.8801   70.2596   -6.8000 O.3     1  UNL1       -0.3308
     12 O          17.9149   70.2154  -10.0718 O.3     1  UNL1       -0.3794
     13 H          15.5462   71.4123   -9.3073 H       1  UNL1        0.2106
     14 H          17.1674   70.5285  -10.5987 H       1  UNL1        0.2105
     15 N          16.8026   70.4292   -5.6264 N.ar    1  UNL1       -0.2551
     16 C          16.4239   69.4319   -4.8074 C.ar    1  UNL1        0.3323
     17 N          15.8294   69.6920   -3.6279 N.ar    1  UNL1       -0.2743
     18 C          15.6052   70.9661   -3.2473 C.ar    1  UNL1        0.2626
     19 C          15.9996   72.0257   -4.0992 C.ar    1  UNL1        0.0795
     20 C          16.5974   71.7360   -5.2740 C.ar    1  UNL1        0.0869
     21 O          16.6200   68.2782   -5.1376 O.2     1  UNL1       -0.2464
     22 O          15.0676   71.2029   -2.1798 O.2     1  UNL1       -0.2670
     23 H          15.5616   68.9610   -3.0499 H       1  UNL1        0.1734
     24 O          22.2874   71.7402   -4.5369 O.3     1  UNL1       -0.2703
     25 P          23.4532   72.1091   -3.4891 P.3     1  UNL1        0.2208
     26 O          24.2529   70.7712   -3.0838 O.3     1  UNL1       -0.4371
     27 O          24.3880   73.0729   -4.1100 O.2     1  UNL1       -0.5170
     28 O          22.8019   72.7656   -2.1710 O.3     1  UNL1       -0.2865
     29 C          23.1015   72.3164   -0.8482 C.3     1  UNL1        0.2611
     30 C          21.7984   72.0299   -0.0982 C.3     1  UNL1        0.1582
     31 C          20.9931   73.3273    0.0225 C.3     1  UNL1        0.1625
     32 C          21.8488   74.3830    0.7280 C.3     1  UNL1        0.1686
     33 C          23.1503   74.5788   -0.0542 C.3     1  UNL1        0.1760
     34 O          19.8089   73.0847    0.7855 O.3     1  UNL1       -0.3801
     35 O          22.1494   73.9457    2.0545 O.3     1  UNL1       -0.3794
     36 O          23.8353   73.3289   -0.1565 O.3     1  UNL1       -0.3263
     37 H          19.2494   73.8649    0.9014 H       1  UNL1        0.2105
     38 H          22.6910   74.5671    2.5610 H       1  UNL1        0.2105
     39 C          20.0837   71.4348   -1.7240 C.2     1  UNL1        0.2231
     40 C          19.2799   70.4130   -2.4846 C.3     1  UNL1        0.0946
     41 N          21.0168   71.0354   -0.8374 N.am    1  UNL1       -0.2994
     42 O          19.8913   72.6184   -1.9092 O.2     1  UNL1       -0.2751
     43 H          21.1702   70.0892   -0.6884 H       1  UNL1        0.1496
     44 C          24.0372   75.5886    0.6766 C.3     1  UNL1        0.1693
     45 O          23.2171   76.5679    1.3176 O.3     1  UNL1       -0.3794
     46 H          23.7137   77.2419    1.8014 H       1  UNL1        0.2105
@<TRIPOS>BOND
     1    29    30    1
     2    30    41    1
     3    30    31    1
     4    31    34    1
     5    31    32    1
     6    32    35    1
     7    32    33    1
     8    33    36    1
     9    33    44    1
    10    39    40    1
    11    39    42    2
    12    39    41   am
    13    41    43    1
    14    29    28    1
    15    34    37    1
    16    35    38    1
    17    29    36    1
    18    44    45    1
    19    45    46    1
    20    15     6    1
    21    15    16   ar
    22    16    21    2
    23    16    17   ar
    24    17    23    1
    25    17    18   ar
    26    18    19   ar
    27    19    20   ar
    28    15    20   ar
    29    18    22    2
    30     6     7    1
    31     6    11    1
    32     7     9    1
    33     7     8    1
    34     8    13    1
    35     9    10    1
    36     9    12    1
    37    10     5    1
    38    10    11    1
    39    12    14    1
    40     5     4    1
    41     4     1    1
    42     1     2    1
    43     1    24    1
    44     1     3    2
    45    24    25    1
    46    28    25    1
    47    25    26    1
    48    25    27    2
@<TRIPOS>MOLECULE
UD2
 46 48 0 0 0
SMALL
GASTEIGER

@<TRIPOS>ATOM
      1 P          21.9365   71.6788   -2.2360 P.3     1  UNL1        0.2189
      2 O          23.1327   72.7315   -2.4645 O.3     1  UNL1       -0.4371
      3 O          22.0916   70.5440   -3.1725 O.2     1  UNL1       -0.5170
      4 O          21.9829   71.1345   -0.7209 O.3     1  UNL1       -0.3112
      5 C          20.8955   71.2872    0.1933 C.3     1  UNL1        0.1811
      6 C          23.3152   72.7645    2.4068 C.3     1  UNL1        0.2383
      7 C          23.1367   73.8063    1.2733 C.3     1  UNL1        0.1895
      8 O          23.3368   75.1333    1.7641 O.3     1  UNL1       -0.3779
      9 C          21.6608   73.5871    0.8595 C.3     1  UNL1        0.1713
     10 C          21.3347   72.1688    1.3650 C.3     1  UNL1        0.1764
     11 O          22.5330   71.6383    1.9535 O.3     1  UNL1       -0.3308
     12 O          20.8169   74.5505    1.4924 O.3     1  UNL1       -0.3794
     13 H          23.2363   75.8209    1.0919 H       1  UNL1        0.2106
     14 H          21.0172   75.4660    1.2554 H       1  UNL1        0.2105
     15 N          24.7245   72.3912    2.5470 N.ar    1  UNL1       -0.2551
     16 C          25.1237   71.1542    2.2019 C.ar    1  UNL1        0.3323
     17 N          26.4125   70.7838    2.3205 N.ar    1  UNL1       -0.2743
     18 C          27.3288   71.6553    2.7889 C.ar    1  UNL1        0.2626
     19 C          26.9226   72.9612    3.1550 C.ar    1  UNL1        0.0795
     20 C          25.6248   73.3067    3.0217 C.ar    1  UNL1        0.0869
     21 O          24.3085   70.3580    1.7779 O.2     1  UNL1       -0.2464
     22 O          28.4956   71.3215    2.8964 O.2     1  UNL1       -0.2670
     23 H          26.6832   69.8876    2.0683 H       1  UNL1        0.1734
     24 O          20.5239   72.4051   -2.5015 O.3     1  UNL1       -0.2703
     25 P          19.0879   71.8991   -3.0256 P.3     1  UNL1        0.2208
     26 O          18.7388   70.4807   -2.3473 O.3     1  UNL1       -0.4371
     27 O          18.0517   72.8890   -2.6586 O.2     1  UNL1       -0.5170
     28 O          19.1290   71.7331   -4.6267 O.3     1  UNL1       -0.2865
     29 C          19.4557   70.5017   -5.2735 C.3     1  UNL1        0.2611
     30 C          20.3280   70.7838   -6.4992 C.3     1  UNL1        0.1582
     31 C          19.5346   71.6359   -7.4946 C.3     1  UNL1        0.1625
     32 C          18.2405   70.9034   -7.8594 C.3     1  UNL1        0.1686
     33 C          17.4484   70.6167   -6.5809 C.3     1  UNL1        0.1760
     34 O          20.3152   71.8425   -8.6741 O.3     1  UNL1       -0.3801
     35 O          18.5562   69.6724   -8.5124 O.3     1  UNL1       -0.3794
     36 O          18.2540   69.8474   -5.6859 O.3     1  UNL1       -0.3263
     37 H          19.8737   72.3763   -9.3490 H       1  UNL1        0.2105
     38 H          17.7816   69.1542   -8.7719 H       1  UNL1        0.2105
     39 C          21.5424   72.8554   -6.0854 C.2     1  UNL1        0.2231
     40 C          22.7805   73.6006   -5.6606 C.3     1  UNL1        0.0946
     41 N          21.5328   71.5078   -6.0861 N.am    1  UNL1       -0.2994
     42 O          20.5527   73.4684   -6.4273 O.2     1  UNL1       -0.2751
     43 H          22.3242   71.0174   -5.8137 H       1  UNL1        0.1496
     44 C          16.1825   69.8322   -6.9308 C.3     1  UNL1        0.1693
     45 O          15.9470   68.8369   -5.9327 O.3     1  UNL1       -0.3794
     46 H          15.1584   68.2999   -6.0903 H       1  UNL1        0.2105
@<TRIPOS>BOND
     1    29    30    1
     2    30    41    1
     3    30    31    1
     4    31    34    1
     5    31    32    1
     6    32    35    1
     7    32    33    1
     8    33    36    1
     9    33    44    1
    10    39    40    1
    11    39    42    2
    12    39    41   am
    13    41    43    1
    14    29    28    1
    15    34    37    1
    16    35    38    1
    17    29    36    1
    18    44    45    1
    19    45    46    1
    20    15     6    1
    21    15    16   ar
    22    16    21    2
    23    16    17   ar
    24    17    23    1
    25    17    18   ar
    26    18    19   ar
    27    19    20   ar
    28    15    20   ar
    29    18    22    2
    30     6     7    1
    31     6    11    1
    32     7     9    1
    33     7     8    1
    34     8    13    1
    35     9    10    1
    36     9    12    1
    37    10     5    1
    38    10    11    1
    39    12    14    1
    40     5     4    1
    41     4     1    1
    42     1     2    1
    43     1    24    1
    44     1     3    2
    45    24    25    1
    46    28    25    1
    47    25    26    1
    48    25    27    2
@<TRIPOS>MOLECULE
UD2
 46 48 0 0 0
SMALL
GASTEIGER

@<TRIPOS>ATOM
      1 P          23.1453   73.0719   -3.3771 P.3     1  UNL1        0.2189
      2 O          24.3878   72.3224   -4.0742 O.3     1  UNL1       -0.4371
      3 O          23.0724   72.6855   -1.9509 O.2     1  UNL1       -0.5170
      4 O          23.3473   74.6656   -3.4918 O.3     1  UNL1       -0.3112
      5 C          24.2792   75.2680   -4.3919 C.3     1  UNL1        0.1811
      6 C          27.8666   75.4911   -4.2602 C.3     1  UNL1        0.2383
      7 C          27.3910   76.9564   -4.4301 C.3     1  UNL1        0.1895
      8 O          28.2955   77.8630   -3.7964 O.3     1  UNL1       -0.3779
      9 C          26.0242   76.9412   -3.7028 C.3     1  UNL1        0.1713
     10 C          25.6239   75.4536   -3.6846 C.3     1  UNL1        0.1764
     11 O          26.6476   74.7265   -4.3824 O.3     1  UNL1       -0.3308
     12 O          26.1623   77.4387   -2.3708 O.3     1  UNL1       -0.3794
     13 H          28.0413   78.7924   -3.8757 H       1  UNL1        0.2106
     14 H          26.4695   78.3540   -2.3219 H       1  UNL1        0.2105
     15 N          28.8113   75.1294   -5.3193 N.ar    1  UNL1       -0.2551
     16 C          29.9862   74.5592   -4.9981 C.ar    1  UNL1        0.3323
     17 N          30.8735   74.2166   -5.9507 N.ar    1  UNL1       -0.2743
     18 C          30.5937   74.4404   -7.2508 C.ar    1  UNL1        0.2626
     19 C          29.3603   75.0390   -7.6034 C.ar    1  UNL1        0.0795
     20 C          28.4877   75.3684   -6.6278 C.ar    1  UNL1        0.0869
     21 O          30.2517   74.3512   -3.8299 O.2     1  UNL1       -0.2464
     22 O          31.3958   74.1304   -8.1141 O.2     1  UNL1       -0.2670
     23 H          31.7165   73.8074   -5.7016 H       1  UNL1        0.1734
     24 O          21.7793   72.6501   -4.1183 O.3     1  UNL1       -0.2703
     25 P          21.2822   72.6831   -5.6496 P.3     1  UNL1        0.2208
     26 O          20.8571   74.1858   -6.0431 O.3     1  UNL1       -0.4371
     27 O          22.3791   72.2336   -6.5345 O.2     1  UNL1       -0.5170
     28 O          20.0160   71.7037   -5.8238 O.3     1  UNL1       -0.2865
     29 C          18.6779   72.1809   -5.9761 C.3     1  UNL1        0.2611
     30 C          17.7611   71.4559   -4.9879 C.3     1  UNL1        0.1582
     31 C          17.7603   69.9583   -5.3098 C.3     1  UNL1        0.1625
     32 C          17.3202   69.7597   -6.7628 C.3     1  UNL1        0.1686
     33 C          18.2544   70.5502   -7.6828 C.3     1  UNL1        0.1760
     34 O          16.8499   69.2835   -4.4386 O.3     1  UNL1       -0.3801
     35 O          15.9804   70.2288   -6.9245 O.3     1  UNL1       -0.3794
     36 O          18.2320   71.9296   -7.3104 O.3     1  UNL1       -0.3263
     37 H          16.7991   68.3291   -4.5863 H       1  UNL1        0.2105
     38 H          15.6357   70.1343   -7.8235 H       1  UNL1        0.2105
     39 C          19.0821   70.7627   -3.0612 C.2     1  UNL1        0.2231
     40 C          19.5870   70.9751   -1.6582 C.3     1  UNL1        0.0946
     41 N          18.2516   71.6631   -3.6230 N.am    1  UNL1       -0.2994
     42 O          19.4230   69.7804   -3.6866 O.2     1  UNL1       -0.2751
     43 H          17.9779   72.4481   -3.1230 H       1  UNL1        0.1496
     44 C          17.7855   70.4052   -9.1318 C.3     1  UNL1        0.1693
     45 O          18.4994   71.3266   -9.9588 O.3     1  UNL1       -0.3794
     46 H          18.2527   71.2901  -10.8930 H       1  UNL1        0.2105
@<TRIPOS>BOND
     1    29    30    1
     2    30    41    1
     3    30    31    1
     4    31    34    1
     5    31    32    1
     6    32    35    1
     7    32    33    1
     8    33    36    1
     9    33    44    1
    10    39    40    1
    11    39    42    2
    12    39    41   am
    13    41    43    1
    14    29    28    1
    15    34    37    1
    16    35    38    1
    17    29    36    1
    18    44    45    1
    19    45    46    1
    20    15     6    1
    21    15    16   ar
    22    16    21    2
    23    16    17   ar
    24    17    23    1
    25    17    18   ar
    26    18    19   ar
    27    19    20   ar
    28    15    20   ar
    29    18    22    2
    30     6     7    1
    31     6    11    1
    32     7     9    1
    33     7     8    1
    34     8    13    1
    35     9    10    1
    36     9    12    1
    37    10     5    1
    38    10    11    1
    39    12    14    1
    40     5     4    1
    41     4     1    1
    42     1     2    1
    43     1    24    1
    44     1     3    2
    45    24    25    1
    46    28    25    1
    47    25    26    1
    48    25    27    2
@<TRIPOS>MOLECULE
UD2
 46 48 0 0 0
SMALL
GASTEIGER

@<TRIPOS>ATOM
      1 P          21.8992   72.9326   -6.1883 P.3     1  UNL1        0.2189
      2 O          23.0579   73.0040   -7.3036 O.3     1  UNL1       -0.4371
      3 O          21.5592   74.3012   -5.7410 O.2     1  UNL1       -0.5170
      4 O          20.5919   72.2330   -6.8169 O.3     1  UNL1       -0.3112
      5 C          20.6180   71.4935   -8.0392 C.3     1  UNL1        0.1811
      6 C          17.4982   70.1439   -6.8636 C.3     1  UNL1        0.2383
      7 C          17.0937   71.1655   -7.9566 C.3     1  UNL1        0.1895
      8 O          15.8897   70.7616   -8.6118 O.3     1  UNL1       -0.3779
      9 C          18.2991   71.0991   -8.9261 C.3     1  UNL1        0.1713
     10 C          19.4396   70.5170   -8.0694 C.3     1  UNL1        0.1764
     11 O          18.9250   70.3309   -6.7413 O.3     1  UNL1       -0.3308
     12 O          18.0079   70.2350  -10.0258 O.3     1  UNL1       -0.3794
     13 H          15.5954   71.3692   -9.3038 H       1  UNL1        0.2106
     14 H          17.2593   70.5227  -10.5655 H       1  UNL1        0.2105
     15 N          16.8271   70.4495   -5.5982 N.ar    1  UNL1       -0.2551
     16 C          16.4474   69.4469   -4.7861 C.ar    1  UNL1        0.3323
     17 N          15.8287   69.6985   -3.6174 N.ar    1  UNL1       -0.2743
     18 C          15.5805   70.9694   -3.2406 C.ar    1  UNL1        0.2626
     19 C          15.9757   72.0345   -4.0852 C.ar    1  UNL1        0.0795
     20 C          16.5981   71.7533   -5.2492 C.ar    1  UNL1        0.0869
     21 O          16.6649   68.2961   -5.1130 O.2     1  UNL1       -0.2464
     22 O          15.0210   71.1985   -2.1828 O.2     1  UNL1       -0.2670
     23 H          15.5605   68.9638   -3.0443 H       1  UNL1        0.1734
     24 O          22.4166   72.0697   -4.9309 O.3     1  UNL1       -0.2703
     25 P          23.4339   72.3618   -3.7174 P.3     1  UNL1        0.2208
     26 O          23.9638   70.9657   -3.1141 O.3     1  UNL1       -0.4371
     27 O          24.5821   73.1509   -4.2148 O.2     1  UNL1       -0.5170
     28 O          22.6717   73.1897   -2.5658 O.3     1  UNL1       -0.2865
     29 C          23.3038   74.2131   -1.7947 C.3     1  UNL1        0.2611
     30 C          22.6905   74.2494   -0.3929 C.3     1  UNL1        0.1582
     31 C          21.2040   74.6022   -0.5043 C.3     1  UNL1        0.1625
     32 C          21.0613   75.9400   -1.2352 C.3     1  UNL1        0.1686
     33 C          21.7375   75.8384   -2.6050 C.3     1  UNL1        0.1760
     34 O          20.6399   74.7105    0.8046 O.3     1  UNL1       -0.3801
     35 O          21.6855   76.9719   -0.4692 O.3     1  UNL1       -0.3794
     36 O          23.1093   75.4776   -2.4316 O.3     1  UNL1       -0.3263
     37 H          19.6985   74.9316    0.8096 H       1  UNL1        0.2105
     38 H          21.6339   77.8491   -0.8739 H       1  UNL1        0.2105
     39 C          21.8638   72.0120    0.1052 C.2     1  UNL1        0.2231
     40 C          22.0127   70.6610    0.7543 C.3     1  UNL1        0.0946
     41 N          22.8359   72.9357    0.2391 N.am    1  UNL1       -0.2994
     42 O          20.8682   72.2693   -0.5387 O.2     1  UNL1       -0.2751
     43 H          23.6317   72.7307    0.7546 H       1  UNL1        0.1496
     44 C          21.6514   77.1895   -3.3175 C.3     1  UNL1        0.1693
     45 O          22.8272   77.9522   -3.0378 O.3     1  UNL1       -0.3794
     46 H          22.8411   78.8229   -3.4582 H       1  UNL1        0.2105
@<TRIPOS>BOND
     1    29    30    1
     2    30    41    1
     3    30    31    1
     4    31    34    1
     5    31    32    1
     6    32    35    1
     7    32    33    1
     8    33    36    1
     9    33    44    1
    10    39    40    1
    11    39    42    2
    12    39    41   am
    13    41    43    1
    14    29    28    1
    15    34    37    1
    16    35    38    1
    17    29    36    1
    18    44    45    1
    19    45    46    1
    20    15     6    1
    21    15    16   ar
    22    16    21    2
    23    16    17   ar
    24    17    23    1
    25    17    18   ar
    26    18    19   ar
    27    19    20   ar
    28    15    20   ar
    29    18    22    2
    30     6     7    1
    31     6    11    1
    32     7     9    1
    33     7     8    1
    34     8    13    1
    35     9    10    1
    36     9    12    1
    37    10     5    1
    38    10    11    1
    39    12    14    1
    40     5     4    1
    41     4     1    1
    42     1     2    1
    43     1    24    1
    44     1     3    2
    45    24    25    1
    46    28    25    1
    47    25    26    1
    48    25    27    2
@<TRIPOS>MOLECULE
UD2
 46 48 0 0 0
SMALL
GASTEIGER

@<TRIPOS>ATOM
      1 P          21.4965   71.1316   -0.2335 P.3     1  UNL1        0.2189
      2 O          21.4146   70.3440    1.1681 O.3     1  UNL1       -0.4371
      3 O          22.8327   70.9301   -0.8359 O.2     1  UNL1       -0.5170
      4 O          20.3666   70.5673   -1.2328 O.3     1  UNL1       -0.3112
      5 C          20.4361   70.7224   -2.6515 C.3     1  UNL1        0.1811
      6 C          17.9668   70.6628   -5.2659 C.3     1  UNL1        0.2383
      7 C          17.8999   69.2490   -4.6343 C.3     1  UNL1        0.1895
      8 O          16.5788   68.7119   -4.7249 O.3     1  UNL1       -0.3779
      9 C          18.2810   69.5327   -3.1607 C.3     1  UNL1        0.1713
     10 C          19.0226   70.8819   -3.2166 C.3     1  UNL1        0.1764
     11 O          19.0895   71.2765   -4.5962 O.3     1  UNL1       -0.3308
     12 O          17.1072   69.6397   -2.3535 O.3     1  UNL1       -0.3794
     13 H          16.4862   67.8283   -4.3437 H       1  UNL1        0.2106
     14 H          16.5703   68.8362   -2.3302 H       1  UNL1        0.2105
     15 N          18.2115   70.5728   -6.7071 N.ar    1  UNL1       -0.2551
     16 C          17.1715   70.5508   -7.5596 C.ar    1  UNL1        0.3323
     17 N          17.3670   70.4684   -8.8889 N.ar    1  UNL1       -0.2743
     18 C          18.6181   70.4082   -9.3885 C.ar    1  UNL1        0.2626
     19 C          19.7222   70.4315   -8.5028 C.ar    1  UNL1        0.0795
     20 C          19.4970   70.5189   -7.1749 C.ar    1  UNL1        0.0869
     21 O          16.0379   70.6046   -7.1232 O.2     1  UNL1       -0.2464
     22 O          18.7964   70.3340  -10.5916 O.2     1  UNL1       -0.2670
     23 H          16.6059   70.4524   -9.4895 H       1  UNL1        0.1734
     24 O          21.2526   72.7032    0.0186 O.3     1  UNL1       -0.2703
     25 P          21.9265   74.0461   -0.5605 P.3     1  UNL1        0.2208
     26 O          22.3009   73.8320   -2.1122 O.3     1  UNL1       -0.4371
     27 O          20.9737   75.1707   -0.4341 O.2     1  UNL1       -0.5170
     28 O          23.2632   74.3783    0.2736 O.3     1  UNL1       -0.2865
     29 C          23.2592   75.1525    1.4744 C.3     1  UNL1        0.2611
     30 C          24.6986   75.3689    1.9478 C.3     1  UNL1        0.1582
     31 C          25.3299   74.0114    2.2718 C.3     1  UNL1        0.1625
     32 C          24.4737   73.3002    3.3232 C.3     1  UNL1        0.1686
     33 C          23.0427   73.1634    2.7965 C.3     1  UNL1        0.1760
     34 O          26.6495   74.2090    2.7845 O.3     1  UNL1       -0.3801
     35 O          24.4679   74.0639    4.5307 O.3     1  UNL1       -0.3794
     36 O          22.5255   74.4587    2.4856 O.3     1  UNL1       -0.3263
     37 H          27.1100   73.3893    3.0107 H       1  UNL1        0.2105
     38 H          23.9427   73.6718    5.2423 H       1  UNL1        0.2105
     39 C          26.0407   77.2253    1.1170 C.2     1  UNL1        0.2231
     40 C          26.8324   77.9021    0.0290 C.3     1  UNL1        0.0946
     41 N          25.4683   76.0268    0.8889 N.am    1  UNL1       -0.2994
     42 O          25.9178   77.7591    2.1996 O.2     1  UNL1       -0.2751
     43 H          25.5655   75.6001    0.0232 H       1  UNL1        0.1496
     44 C          22.1667   72.5072    3.8653 C.3     1  UNL1        0.1693
     45 O          20.8880   72.1951    3.3085 O.3     1  UNL1       -0.3794
     46 H          20.2789   71.7756    3.9315 H       1  UNL1        0.2105
@<TRIPOS>BOND
     1    29    30    1
     2    30    41    1
     3    30    31    1
     4    31    34    1
     5    31    32    1
     6    32    35    1
     7    32    33    1
     8    33    36    1
     9    33    44    1
    10    39    40    1
    11    39    42    2
    12    39    41   am
    13    41    43    1
    14    29    28    1
    15    34    37    1
    16    35    38    1
    17    29    36    1
    18    44    45    1
    19    45    46    1
    20    15     6    1
    21    15    16   ar
    22    16    21    2
    23    16    17   ar
    24    17    23    1
    25    17    18   ar
    26    18    19   ar
    27    19    20   ar
    28    15    20   ar
    29    18    22    2
    30     6     7    1
    31     6    11    1
    32     7     9    1
    33     7     8    1
    34     8    13    1
    35     9    10    1
    36     9    12    1
    37    10     5    1
    38    10    11    1
    39    12    14    1
    40     5     4    1
    41     4     1    1
    42     1     2    1
    43     1    24    1
    44     1     3    2
    45    24    25    1
    46    28    25    1
    47    25    26    1
    48    25    27    2
@<TRIPOS>MOLECULE
UD2
 46 48 0 0 0
SMALL
GASTEIGER

@<TRIPOS>ATOM
      1 P          21.6483   71.1760   -0.0574 P.3     1  UNL1        0.2189
      2 O          20.9558   72.5802    0.3168 O.3     1  UNL1       -0.4371
      3 O          21.2485   70.1494    0.9301 O.2     1  UNL1       -0.5170
      4 O          21.1754   70.7194   -1.5276 O.3     1  UNL1       -0.3112
      5 C          20.8087   71.6484   -2.5494 C.3     1  UNL1        0.1811
      6 C          18.2549   70.7509   -4.9178 C.3     1  UNL1        0.2383
      7 C          18.6294   69.4165   -4.2241 C.3     1  UNL1        0.1895
      8 O          17.5044   68.5372   -4.1687 O.3     1  UNL1       -0.3779
      9 C          19.0315   69.8890   -2.8055 C.3     1  UNL1        0.1713
     10 C          19.3662   71.3819   -2.9866 C.3     1  UNL1        0.1764
     11 O          19.2139   71.6883   -4.3818 O.3     1  UNL1       -0.3308
     12 O          17.9404   69.7272   -1.8977 O.3     1  UNL1       -0.3794
     13 H          17.6888   67.6885   -3.7439 H       1  UNL1        0.2106
     14 H          17.6490   68.8116   -1.7909 H       1  UNL1        0.2105
     15 N          18.4016   70.6360   -6.3704 N.ar    1  UNL1       -0.2551
     16 C          17.3486   70.2624   -7.1191 C.ar    1  UNL1        0.3323
     17 N          17.4549   70.1484   -8.4562 N.ar    1  UNL1       -0.2743
     18 C          18.6272   70.4110   -9.0688 C.ar    1  UNL1        0.2626
     19 C          19.7435   70.8063   -8.2931 C.ar    1  UNL1        0.0795
     20 C          19.6073   70.9165   -6.9549 C.ar    1  UNL1        0.0869
     21 O          16.2854   70.0226   -6.5803 O.2     1  UNL1       -0.2464
     22 O          18.7246   70.3086  -10.2790 O.2     1  UNL1       -0.2670
     23 H          16.6861   69.8767   -8.9809 H       1  UNL1        0.1734
     24 O          23.2497   71.3450   -0.0379 O.3     1  UNL1       -0.2703
     25 P          24.3625   71.3184    1.1257 P.3     1  UNL1        0.2208
     26 O          23.7254   70.6852    2.4625 O.3     1  UNL1       -0.4371
     27 O          25.5123   70.4958    0.6904 O.2     1  UNL1       -0.5170
     28 O          24.8598   72.8200    1.4270 O.3     1  UNL1       -0.2865
     29 C          24.2906   73.6378    2.4509 C.3     1  UNL1        0.2611
     30 C          24.0115   75.0354    1.8927 C.3     1  UNL1        0.1582
     31 C          25.3343   75.6787    1.4653 C.3     1  UNL1        0.1625
     32 C          26.2846   75.7120    2.6655 C.3     1  UNL1        0.1686
     33 C          26.4762   74.2880    3.1939 C.3     1  UNL1        0.1760
     34 O          25.0917   77.0121    1.0110 O.3     1  UNL1       -0.3801
     35 O          25.7269   76.5326    3.6936 O.3     1  UNL1       -0.3794
     36 O          25.2053   73.7367    3.5445 O.3     1  UNL1       -0.3263
     37 H          25.8876   77.4800    0.7233 H       1  UNL1        0.2105
     38 H          26.2770   76.5987    4.4867 H       1  UNL1        0.2105
     39 C          23.6371   74.8703   -0.5094 C.2     1  UNL1        0.2231
     40 C          22.7224   74.7624   -1.7012 C.3     1  UNL1        0.0946
     41 N          23.1210   74.9307    0.7340 N.am    1  UNL1       -0.2994
     42 O          24.8396   74.9030   -0.6684 O.2     1  UNL1       -0.2751
     43 H          22.1597   74.9056    0.8615 H       1  UNL1        0.1496
     44 C          27.3771   74.3198    4.4299 C.3     1  UNL1        0.1693
     45 O          28.2559   73.1930    4.4088 O.3     1  UNL1       -0.3794
     46 H          28.8575   73.1485    5.1646 H       1  UNL1        0.2105
@<TRIPOS>BOND
     1    29    30    1
     2    30    41    1
     3    30    31    1
     4    31    34    1
     5    31    32    1
     6    32    35    1
     7    32    33    1
     8    33    36    1
     9    33    44    1
    10    39    40    1
    11    39    42    2
    12    39    41   am
    13    41    43    1
    14    29    28    1
    15    34    37    1
    16    35    38    1
    17    29    36    1
    18    44    45    1
    19    45    46    1
    20    15     6    1
    21    15    16   ar
    22    16    21    2
    23    16    17   ar
    24    17    23    1
    25    17    18   ar
    26    18    19   ar
    27    19    20   ar
    28    15    20   ar
    29    18    22    2
    30     6     7    1
    31     6    11    1
    32     7     9    1
    33     7     8    1
    34     8    13    1
    35     9    10    1
    36     9    12    1
    37    10     5    1
    38    10    11    1
    39    12    14    1
    40     5     4    1
    41     4     1    1
    42     1     2    1
    43     1    24    1
    44     1     3    2
    45    24    25    1
    46    28    25    1
    47    25    26    1
    48    25    27    2
@<TRIPOS>MOLECULE
UD2
 46 48 0 0 0
SMALL
GASTEIGER

@<TRIPOS>ATOM
      1 P          23.5215   72.5401   -3.8688 P.3     1  UNL1        0.2189
      2 O          24.0763   71.1649   -3.2424 O.3     1  UNL1       -0.4371
      3 O          24.5865   73.5662   -3.8289 O.2     1  UNL1       -0.5170
      4 O          23.0724   72.2916   -5.3954 O.3     1  UNL1       -0.3112
      5 C          21.7405   72.5178   -5.8603 C.3     1  UNL1        0.1811
      6 C          18.8971   70.3863   -5.3051 C.3     1  UNL1        0.2383
      7 C          18.7165   70.9075   -6.7535 C.3     1  UNL1        0.1895
      8 O          18.0399   69.9430   -7.5620 O.3     1  UNL1       -0.3779
      9 C          20.1821   71.0882   -7.2192 C.3     1  UNL1        0.1713
     10 C          20.9844   71.1878   -5.9078 C.3     1  UNL1        0.1764
     11 O          20.0434   71.1216   -4.8245 O.3     1  UNL1       -0.3308
     12 O          20.6065   69.9567   -7.9810 O.3     1  UNL1       -0.3794
     13 H          17.9027   70.2232   -8.4770 H       1  UNL1        0.2106
     14 H          20.0959   69.8115   -8.7889 H       1  UNL1        0.2105
     15 N          17.7138   70.6887   -4.4968 N.ar    1  UNL1       -0.2551
     16 C          16.7733   69.7450   -4.3132 C.ar    1  UNL1        0.3323
     17 N          15.6755   69.9953   -3.5753 N.ar    1  UNL1       -0.2743
     18 C          15.5029   71.2046   -3.0039 C.ar    1  UNL1        0.2626
     19 C          16.4855   72.2070   -3.1881 C.ar    1  UNL1        0.0795
     20 C          17.5781   71.9271   -3.9293 C.ar    1  UNL1        0.0869
     21 O          16.9158   68.6501   -4.8222 O.2     1  UNL1       -0.2464
     22 O          14.5100   71.4323   -2.3355 O.2     1  UNL1       -0.2670
     23 H          15.0065   69.3040   -3.4539 H       1  UNL1        0.1734
     24 O          22.2548   73.0472   -3.0134 O.3     1  UNL1       -0.2703
     25 P          21.4476   72.4541   -1.7527 P.3     1  UNL1        0.2208
     26 O          20.0377   73.2195   -1.6105 O.3     1  UNL1       -0.4371
     27 O          21.2052   71.0092   -1.9572 O.2     1  UNL1       -0.5170
     28 O          22.3130   72.6691   -0.4120 O.3     1  UNL1       -0.2865
     29 C          21.9869   72.0487    0.8330 C.3     1  UNL1        0.2611
     30 C          21.5985   73.1220    1.8527 C.3     1  UNL1        0.1582
     31 C          22.7980   74.0440    2.0927 C.3     1  UNL1        0.1625
     32 C          23.9891   73.2031    2.5602 C.3     1  UNL1        0.1686
     33 C          24.2854   72.1264    1.5128 C.3     1  UNL1        0.1760
     34 O          22.4677   75.0048    3.0982 O.3     1  UNL1       -0.3801
     35 O          23.6751   72.5825    3.8082 O.3     1  UNL1       -0.3794
     36 O          23.1202   71.3234    1.3146 O.3     1  UNL1       -0.3263
     37 H          23.1830   75.6233    3.3006 H       1  UNL1        0.2105
     38 H          24.3865   72.0320    4.1645 H       1  UNL1        0.2105
     39 C          19.4507   74.2349    2.1463 C.2     1  UNL1        0.2231
     40 C          18.2949   75.0408    1.6141 C.3     1  UNL1        0.0946
     41 N          20.4745   73.9057    1.3342 N.am    1  UNL1       -0.2994
     42 O          19.4605   73.8815    3.3070 O.2     1  UNL1       -0.2751
     43 H          20.4666   74.1872    0.4059 H       1  UNL1        0.1496
     44 C          25.4363   71.2442    2.0002 C.3     1  UNL1        0.1693
     45 O          24.9086   70.1124    2.6952 O.3     1  UNL1       -0.3794
     46 H          25.5835   69.5079    3.0332 H       1  UNL1        0.2105
@<TRIPOS>BOND
     1    29    30    1
     2    30    41    1
     3    30    31    1
     4    31    34    1
     5    31    32    1
     6    32    35    1
     7    32    33    1
     8    33    36    1
     9    33    44    1
    10    39    40    1
    11    39    42    2
    12    39    41   am
    13    41    43    1
    14    29    28    1
    15    34    37    1
    16    35    38    1
    17    29    36    1
    18    44    45    1
    19    45    46    1
    20    15     6    1
    21    15    16   ar
    22    16    21    2
    23    16    17   ar
    24    17    23    1
    25    17    18   ar
    26    18    19   ar
    27    19    20   ar
    28    15    20   ar
    29    18    22    2
    30     6     7    1
    31     6    11    1
    32     7     9    1
    33     7     8    1
    34     8    13    1
    35     9    10    1
    36     9    12    1
    37    10     5    1
    38    10    11    1
    39    12    14    1
    40     5     4    1
    41     4     1    1
    42     1     2    1
    43     1    24    1
    44     1     3    2
    45    24    25    1
    46    28    25    1
    47    25    26    1
    48    25    27    2
@<TRIPOS>MOLECULE
UD2
 46 48 0 0 0
SMALL
GASTEIGER

@<TRIPOS>ATOM
      1 P          22.9641   72.8182   -3.4730 P.3     1  UNL1        0.2189
      2 O          24.2104   72.9035   -4.4883 O.3     1  UNL1       -0.4371
      3 O          23.3177   71.9495   -2.3288 O.2     1  UNL1       -0.5170
      4 O          22.6074   74.2941   -2.9362 O.3     1  UNL1       -0.3112
      5 C          21.2671   74.7405   -2.7226 C.3     1  UNL1        0.1811
      6 C          21.8950   74.0399    0.7489 C.3     1  UNL1        0.2383
      7 C          22.7259   75.3141    0.4520 C.3     1  UNL1        0.1895
      8 O          22.8323   76.1363    1.6158 O.3     1  UNL1       -0.3779
      9 C          21.8763   76.0094   -0.6398 C.3     1  UNL1        0.1713
     10 C          21.0085   74.8764   -1.2201 C.3     1  UNL1        0.1764
     11 O          21.3833   73.6634   -0.5480 O.3     1  UNL1       -0.3308
     12 O          21.0536   77.0238   -0.0610 O.3     1  UNL1       -0.3794
     13 H          23.3438   76.9455    1.4806 H       1  UNL1        0.2106
     14 H          21.5480   77.7334    0.3709 H       1  UNL1        0.2105
     15 N          22.7492   72.9824    1.2938 N.ar    1  UNL1       -0.2551
     16 C          22.2086   72.0163    2.0575 C.ar    1  UNL1        0.3323
     17 N          22.9698   71.0322    2.5716 N.ar    1  UNL1       -0.2743
     18 C          24.2952   71.0000    2.3246 C.ar    1  UNL1        0.2626
     19 C          24.8774   72.0100    1.5215 C.ar    1  UNL1        0.0795
     20 C          24.0896   72.9822    1.0157 C.ar    1  UNL1        0.0869
     21 O          21.0149   72.0326    2.2882 O.2     1  UNL1       -0.2464
     22 O          24.9852   70.1096    2.7890 O.2     1  UNL1       -0.2670
     23 H          22.5641   70.3441    3.1211 H       1  UNL1        0.1734
     24 O          21.6881   72.2038   -4.2396 O.3     1  UNL1       -0.2703
     25 P          21.0930   72.3657   -5.7271 P.3     1  UNL1        0.2208
     26 O          20.8300   73.9250   -6.0326 O.3     1  UNL1       -0.4371
     27 O          22.0617   71.8282   -6.7075 O.2     1  UNL1       -0.5170
     28 O          19.7067   71.5547   -5.8416 O.3     1  UNL1       -0.2865
     29 C          18.5232   72.1132   -6.4150 C.3     1  UNL1        0.2611
     30 C          17.2959   71.5913   -5.6640 C.3     1  UNL1        0.1582
     31 C          17.2179   70.0700   -5.8257 C.3     1  UNL1        0.1625
     32 C          17.1747   69.7275   -7.3174 C.3     1  UNL1        0.1686
     33 C          18.4071   70.3214   -8.0048 C.3     1  UNL1        0.1760
     34 O          16.0345   69.5826   -5.1892 O.3     1  UNL1       -0.3801
     35 O          15.9912   70.2768   -7.8995 O.3     1  UNL1       -0.3794
     36 O          18.4359   71.7338   -7.7901 O.3     1  UNL1       -0.3263
     37 H          15.9209   68.6242   -5.2518 H       1  UNL1        0.2105
     38 H          15.8984   70.0987   -8.8459 H       1  UNL1        0.2105
     39 C          16.8207   73.0386   -3.7621 C.2     1  UNL1        0.2231
     40 C          16.9398   73.3846   -2.3011 C.3     1  UNL1        0.0946
     41 N          17.4125   71.9273   -4.2428 N.am    1  UNL1       -0.2994
     42 O          16.1916   73.7604   -4.5074 O.2     1  UNL1       -0.2751
     43 H          17.9164   71.3504   -3.6475 H       1  UNL1        0.1496
     44 C          18.3411   70.0346   -9.5061 C.3     1  UNL1        0.1693
     45 O          18.5635   71.2447  -10.2331 O.3     1  UNL1       -0.3794
     46 H          18.5357   71.1377  -11.1938 H       1  UNL1        0.2105
@<TRIPOS>BOND
     1    29    30    1
     2    30    41    1
     3    30    31    1
     4    31    34    1
     5    31    32    1
     6    32    35    1
     7    32    33    1
     8    33    36    1
     9    33    44    1
    10    39    40    1
    11    39    42    2
    12    39    41   am
    13    41    43    1
    14    29    28    1
    15    34    37    1
    16    35    38    1
    17    29    36    1
    18    44    45    1
    19    45    46    1
    20    15     6    1
    21    15    16   ar
    22    16    21    2
    23    16    17   ar
    24    17    23    1
    25    17    18   ar
    26    18    19   ar
    27    19    20   ar
    28    15    20   ar
    29    18    22    2
    30     6     7    1
    31     6    11    1
    32     7     9    1
    33     7     8    1
    34     8    13    1
    35     9    10    1
    36     9    12    1
    37    10     5    1
    38    10    11    1
    39    12    14    1
    40     5     4    1
    41     4     1    1
    42     1     2    1
    43     1    24    1
    44     1     3    2
    45    24    25    1
    46    28    25    1
    47    25    26    1
    48    25    27    2
@<TRIPOS>MOLECULE
UD2
 46 48 0 0 0
SMALL
GASTEIGER

@<TRIPOS>ATOM
      1 P          21.3463   71.3354    0.0286 P.3     1  UNL1        0.2189
      2 O          20.2294   72.3946    0.4996 O.3     1  UNL1       -0.4371
      3 O          21.4395   70.2419    1.0208 O.2     1  UNL1       -0.5170
      4 O          20.9372   70.7261   -1.4049 O.3     1  UNL1       -0.3112
      5 C          20.7039   71.5387   -2.5568 C.3     1  UNL1        0.1811
      6 C          18.1839   70.7569   -5.0012 C.3     1  UNL1        0.2383
      7 C          18.4731   69.4081   -4.2945 C.3     1  UNL1        0.1895
      8 O          17.3065   68.5834   -4.2725 O.3     1  UNL1       -0.3779
      9 C          18.8537   69.8650   -2.8649 C.3     1  UNL1        0.1713
     10 C          19.2644   71.3398   -3.0377 C.3     1  UNL1        0.1764
     11 O          19.1696   71.6491   -4.4373 O.3     1  UNL1       -0.3308
     12 O          17.7289   69.7577   -1.9908 O.3     1  UNL1       -0.3794
     13 H          17.4372   67.7281   -3.8411 H       1  UNL1        0.2106
     14 H          17.3912   68.8573   -1.8918 H       1  UNL1        0.2105
     15 N          18.3694   70.6310   -6.4485 N.ar    1  UNL1       -0.2551
     16 C          17.3214   70.3139   -7.2296 C.ar    1  UNL1        0.3323
     17 N          17.4629   70.1914   -8.5627 N.ar    1  UNL1       -0.2743
     18 C          18.6664   70.3884   -9.1384 C.ar    1  UNL1        0.2626
     19 C          19.7779   70.7237   -8.3283 C.ar    1  UNL1        0.0795
     20 C          19.6063   70.8440   -6.9951 C.ar    1  UNL1        0.0869
     21 O          16.2304   70.1337   -6.7241 O.2     1  UNL1       -0.2464
     22 O          18.7957   70.2782  -10.3449 O.2     1  UNL1       -0.2670
     23 H          16.6972   69.9610   -9.1110 H       1  UNL1        0.1734
     24 O          22.7717   72.0753   -0.0905 O.3     1  UNL1       -0.2703
     25 P          23.8768   72.5517    0.9794 P.3     1  UNL1        0.2208
     26 O          24.9458   71.3691    1.2086 O.3     1  UNL1       -0.4371
     27 O          24.5728   73.7529    0.4686 O.2     1  UNL1       -0.5170
     28 O          23.1557   72.9019    2.3759 O.3     1  UNL1       -0.2865
     29 C          22.9729   74.2394    2.8436 C.3     1  UNL1        0.2611
     30 C          23.4931   74.3549    4.2784 C.3     1  UNL1        0.1582
     31 C          22.6756   73.4294    5.1848 C.3     1  UNL1        0.1625
     32 C          21.1944   73.8008    5.0727 C.3     1  UNL1        0.1686
     33 C          20.7627   73.7066    3.6069 C.3     1  UNL1        0.1760
     34 O          23.1060   73.5855    6.5389 O.3     1  UNL1       -0.3801
     35 O          20.9997   75.1356    5.5437 O.3     1  UNL1       -0.3794
     36 O          21.5824   74.5680    2.8143 O.3     1  UNL1       -0.3263
     37 H          22.6303   73.0272    7.1692 H       1  UNL1        0.2105
     38 H          20.0819   75.4385    5.5010 H       1  UNL1        0.2105
     39 C          25.7799   74.6705    5.0585 C.2     1  UNL1        0.2231
     40 C          27.2301   74.2659    5.1027 C.3     1  UNL1        0.0946
     41 N          24.9036   73.9608    4.3207 N.am    1  UNL1       -0.2994
     42 O          25.4000   75.6361    5.6874 O.2     1  UNL1       -0.2751
     43 H          25.2071   73.1893    3.8170 H       1  UNL1        0.1496
     44 C          19.2994   74.1339    3.4780 C.3     1  UNL1        0.1693
     45 O          19.0932   74.7526    2.2063 O.3     1  UNL1       -0.3794
     46 H          18.1854   75.0494    2.0552 H       1  UNL1        0.2105
@<TRIPOS>BOND
     1    29    30    1
     2    30    41    1
     3    30    31    1
     4    31    34    1
     5    31    32    1
     6    32    35    1
     7    32    33    1
     8    33    36    1
     9    33    44    1
    10    39    40    1
    11    39    42    2
    12    39    41   am
    13    41    43    1
    14    29    28    1
    15    34    37    1
    16    35    38    1
    17    29    36    1
    18    44    45    1
    19    45    46    1
    20    15     6    1
    21    15    16   ar
    22    16    21    2
    23    16    17   ar
    24    17    23    1
    25    17    18   ar
    26    18    19   ar
    27    19    20   ar
    28    15    20   ar
    29    18    22    2
    30     6     7    1
    31     6    11    1
    32     7     9    1
    33     7     8    1
    34     8    13    1
    35     9    10    1
    36     9    12    1
    37    10     5    1
    38    10    11    1
    39    12    14    1
    40     5     4    1
    41     4     1    1
    42     1     2    1
    43     1    24    1
    44     1     3    2
    45    24    25    1
    46    28    25    1
    47    25    26    1
    48    25    27    2
@<TRIPOS>MOLECULE
UD2
 46 48 0 0 0
SMALL
GASTEIGER

@<TRIPOS>ATOM
      1 P          22.4685   72.9698   -4.1793 P.3     1  UNL1        0.2189
      2 O          22.4713   74.5793   -4.1489 O.3     1  UNL1       -0.4371
      3 O          23.3389   72.4949   -5.2774 O.2     1  UNL1       -0.5170
      4 O          23.0198   72.4057   -2.7752 O.3     1  UNL1       -0.3112
      5 C          22.4927   72.8158   -1.5121 C.3     1  UNL1        0.1811
      6 C          24.0548   71.7012    1.5300 C.3     1  UNL1        0.2383
      7 C          22.6212   72.1090    1.9548 C.3     1  UNL1        0.1895
      8 O          22.1714   71.3183    3.0568 O.3     1  UNL1       -0.3779
      9 C          21.8021   71.7950    0.6789 C.3     1  UNL1        0.1713
     10 C          22.8527   71.7762   -0.4478 C.3     1  UNL1        0.1764
     11 O          24.1206   72.1014    0.1440 O.3     1  UNL1       -0.3308
     12 O          21.1686   70.5197    0.7940 O.3     1  UNL1       -0.3794
     13 H          21.2795   71.5363    3.3596 H       1  UNL1        0.2106
     14 H          20.5397   70.4567    1.5254 H       1  UNL1        0.2105
     15 N          25.0527   72.4221    2.3235 N.ar    1  UNL1       -0.2551
     16 C          26.2499   71.8573    2.5611 C.ar    1  UNL1        0.3323
     17 N          27.1858   72.4969    3.2872 N.ar    1  UNL1       -0.2743
     18 C          26.9347   73.7232    3.7890 C.ar    1  UNL1        0.2626
     19 C          25.6790   74.3300    3.5457 C.ar    1  UNL1        0.0795
     20 C          24.7610   73.6677    2.8109 C.ar    1  UNL1        0.0869
     21 O          26.4901   70.7521    2.1147 O.2     1  UNL1       -0.2464
     22 O          27.7810   74.3033    4.4460 O.2     1  UNL1       -0.2670
     23 H          28.0433   72.0748    3.4501 H       1  UNL1        0.1734
     24 O          20.9665   72.4399   -4.4171 O.3     1  UNL1       -0.2703
     25 P          20.1602   71.1231   -3.9601 P.3     1  UNL1        0.2208
     26 O          21.1995   69.9194   -3.7054 O.3     1  UNL1       -0.4371
     27 O          19.4191   71.4065   -2.7116 O.2     1  UNL1       -0.5170
     28 O          19.1225   70.7010   -5.1167 O.3     1  UNL1       -0.2865
     29 C          18.3636   71.6514   -5.8664 C.3     1  UNL1        0.2611
     30 C          16.9095   71.1831   -5.9624 C.3     1  UNL1        0.1582
     31 C          16.8602   69.8503   -6.7158 C.3     1  UNL1        0.1625
     32 C          17.5041   70.0305   -8.0932 C.3     1  UNL1        0.1686
     33 C          18.9356   70.5434   -7.9149 C.3     1  UNL1        0.1760
     34 O          15.4995   69.4420   -6.8744 O.3     1  UNL1       -0.3801
     35 O          16.7490   70.9755   -8.8535 O.3     1  UNL1       -0.3794
     36 O          18.9129   71.7689   -7.1804 O.3     1  UNL1       -0.3263
     37 H          15.3932   68.6031   -7.3436 H       1  UNL1        0.2105
     38 H          17.1011   71.1397   -9.7395 H       1  UNL1        0.2105
     39 C          16.3955   69.7910   -4.0297 C.2     1  UNL1        0.2231
     40 C          15.8341   69.6065   -2.6443 C.3     1  UNL1        0.0946
     41 N          16.3630   71.0045   -4.6149 N.am    1  UNL1       -0.2994
     42 O          16.8775   68.8466   -4.6198 O.2     1  UNL1       -0.2751
     43 H          15.9768   71.7595   -4.1439 H       1  UNL1        0.1496
     44 C          19.5660   70.7829   -9.2881 C.3     1  UNL1        0.1693
     45 O          18.5600   71.2168  -10.2057 O.3     1  UNL1       -0.3794
     46 H          18.8890   71.3881  -11.0987 H       1  UNL1        0.2105
@<TRIPOS>BOND
     1    29    30    1
     2    30    41    1
     3    30    31    1
     4    31    34    1
     5    31    32    1
     6    32    35    1
     7    32    33    1
     8    33    36    1
     9    33    44    1
    10    39    40    1
    11    39    42    2
    12    39    41   am
    13    41    43    1
    14    29    28    1
    15    34    37    1
    16    35    38    1
    17    29    36    1
    18    44    45    1
    19    45    46    1
    20    15     6    1
    21    15    16   ar
    22    16    21    2
    23    16    17   ar
    24    17    23    1
    25    17    18   ar
    26    18    19   ar
    27    19    20   ar
    28    15    20   ar
    29    18    22    2
    30     6     7    1
    31     6    11    1
    32     7     9    1
    33     7     8    1
    34     8    13    1
    35     9    10    1
    36     9    12    1
    37    10     5    1
    38    10    11    1
    39    12    14    1
    40     5     4    1
    41     4     1    1
    42     1     2    1
    43     1    24    1
    44     1     3    2
    45    24    25    1
    46    28    25    1
    47    25    26    1
    48    25    27    2
