@<TRIPOS>MOLECULE
GDU
 43 45 0 0 0
SMALL
GASTEIGER

@<TRIPOS>ATOM
      1 P          20.8487   71.5373   -2.1856 P.3     1  UNL1        0.2189
      2 O          21.8126   70.6188   -2.8313 O.2     1  UNL1       -0.5170
      3 O          21.5387   72.9768   -1.9736 O.3     1  UNL1       -0.4371
      4 O          19.5501   71.6972   -3.1209 O.3     1  UNL1       -0.3112
      5 C          18.4888   70.9877   -2.4801 C.3     1  UNL1        0.1811
      6 C          16.9331   70.5492   -5.6918 C.3     1  UNL1        0.2383
      7 C          16.9726   69.1251   -5.0809 C.3     1  UNL1        0.1895
      8 O          15.8676   68.3428   -5.5393 O.3     1  UNL1       -0.3779
      9 C          16.8503   69.4191   -3.5631 C.3     1  UNL1        0.1713
     10 C          17.2934   70.8879   -3.4295 C.3     1  UNL1        0.1764
     11 O          17.6710   71.3447   -4.7399 O.3     1  UNL1       -0.3308
     12 O          15.4984   69.2561   -3.1300 O.3     1  UNL1       -0.3794
     13 H          15.9509   67.4727   -5.1248 H       1  UNL1        0.2106
     14 H          15.2613   68.3332   -3.2934 H       1  UNL1        0.2105
     15 N          17.5895   70.5700   -7.0001 N.ar    1  UNL1       -0.2551
     16 C          16.8479   70.4972   -8.1195 C.ar    1  UNL1        0.3323
     17 N          17.4264   70.5180   -9.3347 N.ar    1  UNL1       -0.2743
     18 C          18.7658   70.6025   -9.4489 C.ar    1  UNL1        0.2626
     19 C          19.5600   70.6741   -8.2783 C.ar    1  UNL1        0.0795
     20 C          18.9539   70.6557   -7.0722 C.ar    1  UNL1        0.0869
     21 O          15.6385   70.4211   -8.0323 O.2     1  UNL1       -0.2464
     22 O          19.2906   70.6165  -10.5484 O.2     1  UNL1       -0.2670
     23 H          16.8754   70.4688  -10.1321 H       1  UNL1        0.1734
     24 O          20.4120   70.9375   -0.7567 O.3     1  UNL1       -0.2703
     25 P          21.6964   71.0454    0.2070 P.3     1  UNL1        0.2208
     26 O          21.6457   69.9670    1.2187 O.2     1  UNL1       -0.5170
     27 O          23.0390   70.8954   -0.6698 O.3     1  UNL1       -0.4371
     28 O          21.6961   72.4755    0.9452 O.3     1  UNL1       -0.2858
     29 C          21.7344   72.2177    2.3494 C.3     1  UNL1        0.2704
     30 C          21.4975   73.5215    3.1132 C.3     1  UNL1        0.1967
     31 C          22.5780   74.5333    2.7194 C.3     1  UNL1        0.1715
     32 C          23.9530   73.8911    2.9358 C.3     1  UNL1        0.1694
     33 C          24.0042   72.5592    2.1833 C.3     1  UNL1        0.1761
     34 O          20.2088   74.0423    2.7828 O.3     1  UNL1       -0.3775
     35 O          22.4588   75.7034    3.5313 O.3     1  UNL1       -0.3794
     36 O          24.1607   73.6656    4.3308 O.3     1  UNL1       -0.3794
     37 O          23.0071   71.6774    2.6971 O.3     1  UNL1       -0.3258
     38 H          19.5622   73.3713    3.0407 H       1  UNL1        0.2106
     39 H          21.5780   76.0657    3.3724 H       1  UNL1        0.2105
     40 H          24.1144   74.5280    4.7637 H       1  UNL1        0.2105
     41 C          25.3854   71.9257    2.3647 C.3     1  UNL1        0.1693
     42 O          25.5514   70.8680    1.4189 O.3     1  UNL1       -0.3794
     43 H          26.4322   70.4968    1.5658 H       1  UNL1        0.2105
@<TRIPOS>BOND
     1    15    16   ar
     2    15    20   ar
     3    15     6    1
     4    16    17   ar
     5    16    21    2
     6    17    18   ar
     7    17    23    1
     8    18    19   ar
     9    18    22    2
    10    19    20   ar
    11     6     7    1
    12     6    11    1
    13     7     8    1
    14     7     9    1
    15     8    13    1
    16     9    10    1
    17     9    12    1
    18    10    11    1
    19    10     5    1
    20    12    14    1
    21     5     4    1
    22     4     1    1
    23     1     2    2
    24     1     3    1
    25     1    24    1
    26    24    25    1
    27    25    26    2
    28    25    27    1
    29    25    28    1
    30    28    29    1
    31    29    30    1
    32    29    37    1
    33    30    31    1
    34    30    34    1
    35    31    32    1
    36    31    35    1
    37    32    33    1
    38    32    36    1
    39    33    41    1
    40    33    37    1
    41    41    42    1
    42    34    38    1
    43    35    39    1
    44    36    40    1
    45    42    43    1
@<TRIPOS>MOLECULE
GDU
 43 45 0 0 0
SMALL
GASTEIGER

@<TRIPOS>ATOM
      1 P          20.8668   71.7001   -1.8191 P.3     1  UNL1        0.2189
      2 O          21.3154   73.0710   -1.4888 O.2     1  UNL1       -0.5170
      3 O          21.2540   70.7041   -0.6146 O.3     1  UNL1       -0.4371
      4 O          19.2724   71.6930   -2.0300 O.3     1  UNL1       -0.3112
      5 C          18.9336   70.4197   -2.5818 C.3     1  UNL1        0.1811
      6 C          17.1186   70.4109   -5.6855 C.3     1  UNL1        0.2383
      7 C          16.9865   68.9610   -5.1534 C.3     1  UNL1        0.1895
      8 O          15.7491   68.3769   -5.5668 O.3     1  UNL1       -0.3779
      9 C          17.0112   69.1751   -3.6175 C.3     1  UNL1        0.1713
     10 C          17.6760   70.5531   -3.4423 C.3     1  UNL1        0.1764
     11 O          18.0288   71.0307   -4.7522 O.3     1  UNL1       -0.3308
     12 O          15.6821   69.1830   -3.0927 O.3     1  UNL1       -0.3794
     13 H          15.7295   67.4799   -5.2050 H       1  UNL1        0.2106
     14 H          15.2998   68.3161   -3.2851 H       1  UNL1        0.2105
     15 N          17.6817   70.4175   -7.0367 N.ar    1  UNL1       -0.2551
     16 C          16.8609   70.4579   -8.1010 C.ar    1  UNL1        0.3323
     17 N          17.3530   70.4683   -9.3538 N.ar    1  UNL1       -0.2743
     18 C          18.6831   70.4283   -9.5622 C.ar    1  UNL1        0.2626
     19 C          19.5597   70.3798   -8.4507 C.ar    1  UNL1        0.0795
     20 C          19.0397   70.3746   -7.2049 C.ar    1  UNL1        0.0869
     21 O          15.6588   70.4948   -7.9287 O.2     1  UNL1       -0.2464
     22 O          19.1294   70.4329  -10.6960 O.2     1  UNL1       -0.2670
     23 H          16.7460   70.5020  -10.1103 H       1  UNL1        0.1734
     24 O          21.5905   71.2110   -3.1717 O.3     1  UNL1       -0.2703
     25 P          23.0350   71.9194   -3.2105 P.3     1  UNL1        0.2208
     26 O          23.1632   72.8411   -2.0603 O.2     1  UNL1       -0.5170
     27 O          24.1859   70.7956   -3.1278 O.3     1  UNL1       -0.4371
     28 O          23.1918   72.7463   -4.5822 O.3     1  UNL1       -0.2858
     29 C          21.8898   72.8391   -5.1619 C.3     1  UNL1        0.2704
     30 C          21.9659   72.4752   -6.6455 C.3     1  UNL1        0.1967
     31 C          22.9383   73.4307   -7.3440 C.3     1  UNL1        0.1715
     32 C          22.5077   74.8715   -7.0471 C.3     1  UNL1        0.1694
     33 C          22.3924   75.0543   -5.5318 C.3     1  UNL1        0.1761
     34 O          22.4298   71.1311   -6.7854 O.3     1  UNL1       -0.3775
     35 O          22.9092   73.1992   -8.7540 O.3     1  UNL1       -0.3794
     36 O          21.2445   75.1290   -7.6618 O.3     1  UNL1       -0.3794
     37 O          21.3995   74.1697   -5.0144 O.3     1  UNL1       -0.3258
     38 H          21.7930   70.5670   -6.3260 H       1  UNL1        0.2106
     39 H          23.1744   72.2811   -8.8924 H       1  UNL1        0.2105
     40 H          21.3631   74.9966   -8.6114 H       1  UNL1        0.2105
     41 C          21.9961   76.4998   -5.2229 C.3     1  UNL1        0.1693
     42 O          22.8014   76.9951   -4.1518 O.3     1  UNL1       -0.3794
     43 H          22.5213   77.9064   -3.9893 H       1  UNL1        0.2105
@<TRIPOS>BOND
     1    15    16   ar
     2    15    20   ar
     3    15     6    1
     4    16    17   ar
     5    16    21    2
     6    17    18   ar
     7    17    23    1
     8    18    19   ar
     9    18    22    2
    10    19    20   ar
    11     6     7    1
    12     6    11    1
    13     7     8    1
    14     7     9    1
    15     8    13    1
    16     9    10    1
    17     9    12    1
    18    10    11    1
    19    10     5    1
    20    12    14    1
    21     5     4    1
    22     4     1    1
    23     1     2    2
    24     1     3    1
    25     1    24    1
    26    24    25    1
    27    25    26    2
    28    25    27    1
    29    25    28    1
    30    28    29    1
    31    29    30    1
    32    29    37    1
    33    30    31    1
    34    30    34    1
    35    31    32    1
    36    31    35    1
    37    32    33    1
    38    32    36    1
    39    33    41    1
    40    33    37    1
    41    41    42    1
    42    34    38    1
    43    35    39    1
    44    36    40    1
    45    42    43    1
@<TRIPOS>MOLECULE
GDU
 43 45 0 0 0
SMALL
GASTEIGER

@<TRIPOS>ATOM
      1 P          21.0328   70.8947   -3.3708 P.3     1  UNL1        0.2189
      2 O          21.6486   70.6241   -2.0528 O.2     1  UNL1       -0.5170
      3 O          20.5850   69.5047   -4.0493 O.3     1  UNL1       -0.4371
      4 O          19.7440   71.8375   -3.1782 O.3     1  UNL1       -0.3112
      5 C          18.7381   71.0402   -2.5513 C.3     1  UNL1        0.1811
      6 C          17.0698   70.6034   -5.7062 C.3     1  UNL1        0.2383
      7 C          17.0982   69.1850   -5.0815 C.3     1  UNL1        0.1895
      8 O          15.9622   68.4226   -5.4954 O.3     1  UNL1       -0.3779
      9 C          17.0317   69.4971   -3.5638 C.3     1  UNL1        0.1713
     10 C          17.5107   70.9571   -3.4606 C.3     1  UNL1        0.1764
     11 O          17.8553   71.3921   -4.7873 O.3     1  UNL1       -0.3308
     12 O          15.6913   69.3683   -3.0855 O.3     1  UNL1       -0.3794
     13 H          16.0400   67.5551   -5.0743 H       1  UNL1        0.2106
     14 H          15.4291   68.4492   -3.2312 H       1  UNL1        0.2105
     15 N          17.6836   70.5964   -7.0351 N.ar    1  UNL1       -0.2551
     16 C          16.9080   70.4796   -8.1274 C.ar    1  UNL1        0.3323
     17 N          17.4469   70.4740   -9.3608 N.ar    1  UNL1       -0.2743
     18 C          18.7804   70.5760   -9.5208 C.ar    1  UNL1        0.2626
     19 C          19.6103   70.6939   -8.3790 C.ar    1  UNL1        0.0795
     20 C          19.0434   70.7011   -7.1538 C.ar    1  UNL1        0.0869
     21 O          15.7034   70.3871   -7.9990 O.2     1  UNL1       -0.2464
     22 O          19.2695   70.5663  -10.6366 O.2     1  UNL1       -0.2670
     23 H          16.8716   70.3931  -10.1382 H       1  UNL1        0.1734
     24 O          22.1027   71.6336   -4.3205 O.3     1  UNL1       -0.2703
     25 P          23.3360   72.0694   -3.3829 P.3     1  UNL1        0.2208
     26 O          24.0747   70.8635   -2.9477 O.2     1  UNL1       -0.5170
     27 O          24.3249   73.0338   -4.2113 O.3     1  UNL1       -0.4371
     28 O          22.7797   72.8540   -2.0926 O.3     1  UNL1       -0.2858
     29 C          23.9110   73.1742   -1.2819 C.3     1  UNL1        0.2704
     30 C          23.7239   72.5749    0.1128 C.3     1  UNL1        0.1967
     31 C          22.4399   73.1383    0.7294 C.3     1  UNL1        0.1715
     32 C          22.5034   74.6691    0.6803 C.3     1  UNL1        0.1694
     33 C          22.7813   75.1098   -0.7590 C.3     1  UNL1        0.1761
     34 O          23.6251   71.1531    0.0135 O.3     1  UNL1       -0.3775
     35 O          22.3277   72.7033    2.0861 O.3     1  UNL1       -0.3794
     36 O          23.5484   75.1317    1.5370 O.3     1  UNL1       -0.3794
     37 O          24.0397   74.5908   -1.1868 O.3     1  UNL1       -0.3258
     38 H          24.4497   70.8433   -0.3853 H       1  UNL1        0.2106
     39 H          22.3033   71.7382    2.0694 H       1  UNL1        0.2105
     40 H          23.3349   74.8269    2.4285 H       1  UNL1        0.2105
     41 C          22.8126   76.6384   -0.8254 C.3     1  UNL1        0.1693
     42 O          24.1566   77.0940   -0.6607 O.3     1  UNL1       -0.3794
     43 H          24.1328   78.0596   -0.7095 H       1  UNL1        0.2105
@<TRIPOS>BOND
     1    15    16   ar
     2    15    20   ar
     3    15     6    1
     4    16    17   ar
     5    16    21    2
     6    17    18   ar
     7    17    23    1
     8    18    19   ar
     9    18    22    2
    10    19    20   ar
    11     6     7    1
    12     6    11    1
    13     7     8    1
    14     7     9    1
    15     8    13    1
    16     9    10    1
    17     9    12    1
    18    10    11    1
    19    10     5    1
    20    12    14    1
    21     5     4    1
    22     4     1    1
    23     1     2    2
    24     1     3    1
    25     1    24    1
    26    24    25    1
    27    25    26    2
    28    25    27    1
    29    25    28    1
    30    28    29    1
    31    29    30    1
    32    29    37    1
    33    30    31    1
    34    30    34    1
    35    31    32    1
    36    31    35    1
    37    32    33    1
    38    32    36    1
    39    33    41    1
    40    33    37    1
    41    41    42    1
    42    34    38    1
    43    35    39    1
    44    36    40    1
    45    42    43    1
@<TRIPOS>MOLECULE
GDU
 43 45 0 0 0
SMALL
GASTEIGER

@<TRIPOS>ATOM
      1 P          21.2813   71.7495   -2.0316 P.3     1  UNL1        0.2189
      2 O          21.8700   70.6398   -1.2497 O.2     1  UNL1       -0.5170
      3 O          22.4606   72.6362   -2.6766 O.3     1  UNL1       -0.4371
      4 O          20.3582   71.1497   -3.2042 O.3     1  UNL1       -0.3112
      5 C          19.2922   70.4411   -2.5701 C.3     1  UNL1        0.1811
      6 C          17.3741   70.4831   -5.6109 C.3     1  UNL1        0.2383
      7 C          17.2245   69.0357   -5.0765 C.3     1  UNL1        0.1895
      8 O          15.9599   68.4829   -5.4487 O.3     1  UNL1       -0.3779
      9 C          17.3061   69.2460   -3.5420 C.3     1  UNL1        0.1713
     10 C          18.0099   70.6070   -3.3877 C.3     1  UNL1        0.1764
     11 O          18.3301   71.0785   -4.7081 O.3     1  UNL1       -0.3308
     12 O          15.9960   69.2853   -2.9728 O.3     1  UNL1       -0.3794
     13 H          15.9306   67.5859   -5.0876 H       1  UNL1        0.2106
     14 H          15.5863   68.4284   -3.1533 H       1  UNL1        0.2105
     15 N          17.8914   70.4786   -6.9803 N.ar    1  UNL1       -0.2551
     16 C          17.0357   70.4265   -8.0163 C.ar    1  UNL1        0.3323
     17 N          17.4852   70.4247   -9.2851 N.ar    1  UNL1       -0.2743
     18 C          18.8075   70.4655   -9.5381 C.ar    1  UNL1        0.2626
     19 C          19.7209   70.5149   -8.4566 C.ar    1  UNL1        0.0795
     20 C          19.2430   70.5199   -7.1941 C.ar    1  UNL1        0.0869
     21 O          15.8400   70.3897   -7.8037 O.2     1  UNL1       -0.2464
     22 O          19.2155   70.4592  -10.6861 O.2     1  UNL1       -0.2670
     23 H          16.8531   70.3910  -10.0207 H       1  UNL1        0.1734
     24 O          20.3868   72.6726   -1.0618 O.3     1  UNL1       -0.2703
     25 P          20.8514   72.3531    0.4455 P.3     1  UNL1        0.2208
     26 O          19.9176   72.9962    1.3960 O.2     1  UNL1       -0.5170
     27 O          20.8449   70.7600    0.6825 O.3     1  UNL1       -0.4371
     28 O          22.3374   72.9235    0.6826 O.3     1  UNL1       -0.2858
     29 C          22.5325   72.9991    2.0954 C.3     1  UNL1        0.2704
     30 C          23.0235   74.3990    2.4674 C.3     1  UNL1        0.1967
     31 C          24.3330   74.6818    1.7248 C.3     1  UNL1        0.1715
     32 C          25.3186   73.5453    2.0191 C.3     1  UNL1        0.1694
     33 C          24.6536   72.2092    1.6788 C.3     1  UNL1        0.1761
     34 O          22.0407   75.3661    2.0931 O.3     1  UNL1       -0.3775
     35 O          24.8806   75.9235    2.1730 O.3     1  UNL1       -0.3794
     36 O          25.6755   73.5684    3.4019 O.3     1  UNL1       -0.3794
     37 O          23.4961   72.0265    2.4930 O.3     1  UNL1       -0.3258
     38 H          21.2336   75.1455    2.5776 H       1  UNL1        0.2106
     39 H          24.2245   76.6049    1.9793 H       1  UNL1        0.2105
     40 H          26.0840   74.4273    3.5712 H       1  UNL1        0.2105
     41 C          25.6417   71.0694    1.9368 C.3     1  UNL1        0.1693
     42 O          24.9944   70.0395    2.6860 O.3     1  UNL1       -0.3794
     43 H          25.6492   69.3418    2.8263 H       1  UNL1        0.2105
@<TRIPOS>BOND
     1    15    16   ar
     2    15    20   ar
     3    15     6    1
     4    16    17   ar
     5    16    21    2
     6    17    18   ar
     7    17    23    1
     8    18    19   ar
     9    18    22    2
    10    19    20   ar
    11     6     7    1
    12     6    11    1
    13     7     8    1
    14     7     9    1
    15     8    13    1
    16     9    10    1
    17     9    12    1
    18    10    11    1
    19    10     5    1
    20    12    14    1
    21     5     4    1
    22     4     1    1
    23     1     2    2
    24     1     3    1
    25     1    24    1
    26    24    25    1
    27    25    26    2
    28    25    27    1
    29    25    28    1
    30    28    29    1
    31    29    30    1
    32    29    37    1
    33    30    31    1
    34    30    34    1
    35    31    32    1
    36    31    35    1
    37    32    33    1
    38    32    36    1
    39    33    41    1
    40    33    37    1
    41    41    42    1
    42    34    38    1
    43    35    39    1
    44    36    40    1
    45    42    43    1
@<TRIPOS>MOLECULE
GDU
 43 45 0 0 0
SMALL
GASTEIGER

@<TRIPOS>ATOM
      1 P          20.8460   71.7422   -2.0521 P.3     1  UNL1        0.2189
      2 O          21.8635   70.6702   -2.1231 O.2     1  UNL1       -0.5170
      3 O          21.5329   73.1575   -2.3956 O.3     1  UNL1       -0.4371
      4 O          19.6751   71.4424   -3.1132 O.3     1  UNL1       -0.3112
      5 C          18.4369   71.5983   -2.4181 C.3     1  UNL1        0.1811
      6 C          16.9870   70.6521   -5.5693 C.3     1  UNL1        0.2383
      7 C          17.2828   69.3071   -4.8576 C.3     1  UNL1        0.1895
      8 O          16.3373   68.3070   -5.2438 O.3     1  UNL1       -0.3779
      9 C          17.1090   69.6850   -3.3635 C.3     1  UNL1        0.1713
     10 C          17.2795   71.2154   -3.3423 C.3     1  UNL1        0.1764
     11 O          17.5688   71.6352   -4.6870 O.3     1  UNL1       -0.3308
     12 O          15.8085   69.3134   -2.9023 O.3     1  UNL1       -0.3794
     13 H          16.5762   67.4990   -4.7686 H       1  UNL1        0.2106
     14 H          15.7420   68.3534   -2.9954 H       1  UNL1        0.2105
     15 N          17.6292   70.6946   -6.8840 N.ar    1  UNL1       -0.2551
     16 C          16.9078   70.4295   -7.9875 C.ar    1  UNL1        0.3323
     17 N          17.4733   70.4653   -9.2085 N.ar    1  UNL1       -0.2743
     18 C          18.7807   70.7592   -9.3440 C.ar    1  UNL1        0.2626
     19 C          19.5544   71.0350   -8.1900 C.ar    1  UNL1        0.0795
     20 C          18.9612   70.9964   -6.9779 C.ar    1  UNL1        0.0869
     21 O          15.7272   70.1632   -7.8811 O.2     1  UNL1       -0.2464
     22 O          19.2945   70.7872  -10.4484 O.2     1  UNL1       -0.2670
     23 H          16.9365   70.2755   -9.9944 H       1  UNL1        0.1734
     24 O          20.2258   71.7946   -0.5672 O.3     1  UNL1       -0.2703
     25 P          21.4505   71.5939    0.4574 P.3     1  UNL1        0.2208
     26 O          21.5256   70.1733    0.8638 O.2     1  UNL1       -0.5170
     27 O          22.8272   72.0192   -0.2623 O.3     1  UNL1       -0.4371
     28 O          21.2199   72.5136    1.7578 O.3     1  UNL1       -0.2858
     29 C          22.4669   73.1487    2.0433 C.3     1  UNL1        0.2704
     30 C          22.9982   72.6466    3.3868 C.3     1  UNL1        0.1967
     31 C          21.9696   72.9593    4.4780 C.3     1  UNL1        0.1715
     32 C          21.6386   74.4550    4.4253 C.3     1  UNL1        0.1694
     33 C          21.2082   74.8198    3.0024 C.3     1  UNL1        0.1761
     34 O          23.2129   71.2357    3.3195 O.3     1  UNL1       -0.3775
     35 O          22.5128   72.6301    5.7583 O.3     1  UNL1       -0.3794
     36 O          22.7931   75.2130    4.7895 O.3     1  UNL1       -0.3794
     37 O          22.2782   74.5609    2.0946 O.3     1  UNL1       -0.3258
     38 H          23.8597   71.0852    2.6168 H       1  UNL1        0.2106
     39 H          22.7164   71.6864    5.7416 H       1  UNL1        0.2105
     40 H          23.0308   74.9470    5.6874 H       1  UNL1        0.2105
     41 C          20.8424   76.3047    2.9469 C.3     1  UNL1        0.1693
     42 O          19.4243   76.4490    3.0431 O.3     1  UNL1       -0.3794
     43 H          19.2362   77.3968    3.0050 H       1  UNL1        0.2105
@<TRIPOS>BOND
     1    15    16   ar
     2    15    20   ar
     3    15     6    1
     4    16    17   ar
     5    16    21    2
     6    17    18   ar
     7    17    23    1
     8    18    19   ar
     9    18    22    2
    10    19    20   ar
    11     6     7    1
    12     6    11    1
    13     7     8    1
    14     7     9    1
    15     8    13    1
    16     9    10    1
    17     9    12    1
    18    10    11    1
    19    10     5    1
    20    12    14    1
    21     5     4    1
    22     4     1    1
    23     1     2    2
    24     1     3    1
    25     1    24    1
    26    24    25    1
    27    25    26    2
    28    25    27    1
    29    25    28    1
    30    28    29    1
    31    29    30    1
    32    29    37    1
    33    30    31    1
    34    30    34    1
    35    31    32    1
    36    31    35    1
    37    32    33    1
    38    32    36    1
    39    33    41    1
    40    33    37    1
    41    41    42    1
    42    34    38    1
    43    35    39    1
    44    36    40    1
    45    42    43    1
@<TRIPOS>MOLECULE
GDU
 43 45 0 0 0
SMALL
GASTEIGER

@<TRIPOS>ATOM
      1 P          20.5918   71.6675   -3.1623 P.3     1  UNL1        0.2189
      2 O          20.5437   70.7423   -2.0085 O.2     1  UNL1       -0.5170
      3 O          20.9992   70.8503   -4.4887 O.3     1  UNL1       -0.4371
      4 O          19.1466   72.3420   -3.3704 O.3     1  UNL1       -0.3112
      5 C          18.2050   71.5273   -2.6704 C.3     1  UNL1        0.1811
      6 C          16.8562   70.4941   -5.8391 C.3     1  UNL1        0.2383
      7 C          17.1320   69.1693   -5.0830 C.3     1  UNL1        0.1895
      8 O          16.2009   68.1568   -5.4719 O.3     1  UNL1       -0.3779
      9 C          16.9107   69.5862   -3.6057 C.3     1  UNL1        0.1713
     10 C          17.0778   71.1170   -3.6198 C.3     1  UNL1        0.1764
     11 O          17.4083   71.5018   -4.9655 O.3     1  UNL1       -0.3308
     12 O          15.5972   69.2235   -3.1756 O.3     1  UNL1       -0.3794
     13 H          16.4263   67.3623   -4.9681 H       1  UNL1        0.2106
     14 H          15.5354   68.2612   -3.2453 H       1  UNL1        0.2105
     15 N          17.5392   70.5035   -7.1338 N.ar    1  UNL1       -0.2551
     16 C          16.8175   70.5043   -8.2685 C.ar    1  UNL1        0.3323
     17 N          17.4209   70.5164   -9.4717 N.ar    1  UNL1       -0.2743
     18 C          18.7650   70.5179   -9.5584 C.ar    1  UNL1        0.2626
     19 C          19.5381   70.5113   -8.3716 C.ar    1  UNL1        0.0795
     20 C          18.9075   70.5035   -7.1779 C.ar    1  UNL1        0.0869
     21 O          15.6042   70.5034   -8.2061 O.2     1  UNL1       -0.2464
     22 O          19.3120   70.5240  -10.6471 O.2     1  UNL1       -0.2670
     23 H          16.8844   70.5211  -10.2803 H       1  UNL1        0.1734
     24 O          21.6860   72.8152   -2.8834 O.3     1  UNL1       -0.2703
     25 P          23.1150   72.0822   -2.7795 P.3     1  UNL1        0.2208
     26 O          22.9125   70.6207   -2.6694 O.2     1  UNL1       -0.5170
     27 O          23.9809   72.4056   -4.0985 O.3     1  UNL1       -0.4371
     28 O          23.8998   72.6157   -1.4797 O.3     1  UNL1       -0.2858
     29 C          22.9093   72.9817   -0.5181 C.3     1  UNL1        0.2704
     30 C          23.0825   74.4546   -0.1440 C.3     1  UNL1        0.1967
     31 C          24.4901   74.6626    0.4234 C.3     1  UNL1        0.1715
     32 C          24.7083   73.6684    1.5695 C.3     1  UNL1        0.1694
     33 C          24.4134   72.2539    1.0644 C.3     1  UNL1        0.1761
     34 O          22.9083   75.2673   -1.3060 O.3     1  UNL1       -0.3775
     35 O          24.6176   75.9992    0.9131 O.3     1  UNL1       -0.3794
     36 O          23.8322   73.9869    2.6516 O.3     1  UNL1       -0.3794
     37 O          23.0529   72.1671    0.6431 O.3     1  UNL1       -0.3258
     38 H          22.0139   75.0991   -1.6326 H       1  UNL1        0.2106
     39 H          24.4613   76.5878    0.1639 H       1  UNL1        0.2105
     40 H          24.0495   74.8853    2.9325 H       1  UNL1        0.2105
     41 C          24.6615   71.2495    2.1920 C.3     1  UNL1        0.1693
     42 O          24.4911   69.9220    1.6923 O.3     1  UNL1       -0.3794
     43 H          24.6566   69.3211    2.4318 H       1  UNL1        0.2105
@<TRIPOS>BOND
     1    15    16   ar
     2    15    20   ar
     3    15     6    1
     4    16    17   ar
     5    16    21    2
     6    17    18   ar
     7    17    23    1
     8    18    19   ar
     9    18    22    2
    10    19    20   ar
    11     6     7    1
    12     6    11    1
    13     7     8    1
    14     7     9    1
    15     8    13    1
    16     9    10    1
    17     9    12    1
    18    10    11    1
    19    10     5    1
    20    12    14    1
    21     5     4    1
    22     4     1    1
    23     1     2    2
    24     1     3    1
    25     1    24    1
    26    24    25    1
    27    25    26    2
    28    25    27    1
    29    25    28    1
    30    28    29    1
    31    29    30    1
    32    29    37    1
    33    30    31    1
    34    30    34    1
    35    31    32    1
    36    31    35    1
    37    32    33    1
    38    32    36    1
    39    33    41    1
    40    33    37    1
    41    41    42    1
    42    34    38    1
    43    35    39    1
    44    36    40    1
    45    42    43    1
@<TRIPOS>MOLECULE
GDU
 43 45 0 0 0
SMALL
GASTEIGER

@<TRIPOS>ATOM
      1 P          20.5824   72.8178   -2.9366 P.3     1  UNL1        0.2189
      2 O          19.9905   73.9692   -3.6533 O.2     1  UNL1       -0.5170
      3 O          20.3722   73.0069   -1.3514 O.3     1  UNL1       -0.4371
      4 O          19.8641   71.4606   -3.4151 O.3     1  UNL1       -0.3112
      5 C          18.6912   71.3086   -2.6141 C.3     1  UNL1        0.1811
      6 C          17.0514   70.6741   -5.7503 C.3     1  UNL1        0.2383
      7 C          17.1349   69.2852   -5.0669 C.3     1  UNL1        0.1895
      8 O          16.0317   68.4611   -5.4502 O.3     1  UNL1       -0.3779
      9 C          17.0513   69.6573   -3.5636 C.3     1  UNL1        0.1713
     10 C          17.4709   71.1384   -3.5207 C.3     1  UNL1        0.1764
     11 O          17.8018   71.5313   -4.8640 O.3     1  UNL1       -0.3308
     12 O          15.7157   69.4946   -3.0822 O.3     1  UNL1       -0.3794
     13 H          16.1431   67.6158   -4.9932 H       1  UNL1        0.2106
     14 H          15.4911   68.5604   -3.1898 H       1  UNL1        0.2105
     15 N          17.6691   70.6366   -7.0769 N.ar    1  UNL1       -0.2551
     16 C          16.8982   70.4766   -8.1671 C.ar    1  UNL1        0.3323
     17 N          17.4407   70.4422   -9.3986 N.ar    1  UNL1       -0.2743
     18 C          18.7731   70.5583   -9.5581 C.ar    1  UNL1        0.2626
     19 C          19.5980   70.7216   -8.4184 C.ar    1  UNL1        0.0795
     20 C          19.0276   70.7569   -7.1953 C.ar    1  UNL1        0.0869
     21 O          15.6947   70.3710   -8.0389 O.2     1  UNL1       -0.2464
     22 O          19.2655   70.5226  -10.6721 O.2     1  UNL1       -0.2670
     23 H          16.8689   70.3304  -10.1746 H       1  UNL1        0.1734
     24 O          22.1572   72.7365   -3.2618 O.3     1  UNL1       -0.2703
     25 P          22.7563   71.5375   -2.3712 P.3     1  UNL1        0.2208
     26 O          21.8336   70.3817   -2.4156 O.2     1  UNL1       -0.5170
     27 O          24.1918   71.1003   -2.9562 O.3     1  UNL1       -0.4371
     28 O          22.9265   72.0315   -0.8490 O.3     1  UNL1       -0.2858
     29 C          23.0494   70.8586   -0.0434 C.3     1  UNL1        0.2704
     30 C          21.8781   70.7897    0.9378 C.3     1  UNL1        0.1967
     31 C          21.8842   72.0485    1.8106 C.3     1  UNL1        0.1715
     32 C          23.2676   72.1911    2.4553 C.3     1  UNL1        0.1694
     33 C          24.3341   72.1556    1.3579 C.3     1  UNL1        0.1761
     34 O          20.6497   70.7146    0.2121 O.3     1  UNL1       -0.3775
     35 O          20.8874   71.9320    2.8282 O.3     1  UNL1       -0.3794
     36 O          23.4812   71.1158    3.3709 O.3     1  UNL1       -0.3794
     37 O          24.2803   70.9042    0.6746 O.3     1  UNL1       -0.3258
     38 H          20.6929   69.9134   -0.3274 H       1  UNL1        0.2106
     39 H          20.0387   71.8327    2.3785 H       1  UNL1        0.2105
     40 H          22.7854   71.1743    4.0385 H       1  UNL1        0.2105
     41 C          25.7177   72.3317    1.9879 C.3     1  UNL1        0.1693
     42 O          26.2784   71.0484    2.2702 O.3     1  UNL1       -0.3794
     43 H          27.1478   71.2034    2.6644 H       1  UNL1        0.2105
@<TRIPOS>BOND
     1    15    16   ar
     2    15    20   ar
     3    15     6    1
     4    16    17   ar
     5    16    21    2
     6    17    18   ar
     7    17    23    1
     8    18    19   ar
     9    18    22    2
    10    19    20   ar
    11     6     7    1
    12     6    11    1
    13     7     8    1
    14     7     9    1
    15     8    13    1
    16     9    10    1
    17     9    12    1
    18    10    11    1
    19    10     5    1
    20    12    14    1
    21     5     4    1
    22     4     1    1
    23     1     2    2
    24     1     3    1
    25     1    24    1
    26    24    25    1
    27    25    26    2
    28    25    27    1
    29    25    28    1
    30    28    29    1
    31    29    30    1
    32    29    37    1
    33    30    31    1
    34    30    34    1
    35    31    32    1
    36    31    35    1
    37    32    33    1
    38    32    36    1
    39    33    41    1
    40    33    37    1
    41    41    42    1
    42    34    38    1
    43    35    39    1
    44    36    40    1
    45    42    43    1
@<TRIPOS>MOLECULE
GDU
 43 45 0 0 0
SMALL
GASTEIGER

@<TRIPOS>ATOM
      1 P          21.3527   71.6911   -2.1898 P.3     1  UNL1        0.2189
      2 O          22.5985   71.0403   -2.6524 O.2     1  UNL1       -0.5170
      3 O          21.6342   73.2519   -1.9112 O.3     1  UNL1       -0.4371
      4 O          20.2181   71.5439   -3.3203 O.3     1  UNL1       -0.3112
      5 C          19.0906   72.3001   -2.8759 C.3     1  UNL1        0.1811
      6 C          17.3563   71.0468   -5.7653 C.3     1  UNL1        0.2383
      7 C          17.6354   69.7891   -4.9031 C.3     1  UNL1        0.1895
      8 O          16.6124   68.8078   -5.0865 O.3     1  UNL1       -0.3779
      9 C          17.5965   70.3664   -3.4642 C.3     1  UNL1        0.1713
     10 C          17.8475   71.8733   -3.6586 C.3     1  UNL1        0.1764
     11 O          18.0543   72.0977   -5.0640 O.3     1  UNL1       -0.3308
     12 O          16.3177   70.1382   -2.8688 O.3     1  UNL1       -0.3794
     13 H          16.8448   68.0546   -4.5257 H       1  UNL1        0.2106
     14 H          16.1945   69.1801   -2.8286 H       1  UNL1        0.2105
     15 N          17.8972   70.8798   -7.1152 N.ar    1  UNL1       -0.2551
     16 C          17.0899   70.4757   -8.1118 C.ar    1  UNL1        0.3323
     17 N          17.5613   70.3179   -9.3627 N.ar    1  UNL1       -0.2743
     18 C          18.8590   70.5541   -9.6352 C.ar    1  UNL1        0.2626
     19 C          19.7224   70.9747   -8.5941 C.ar    1  UNL1        0.0795
     20 C          19.2227   71.1293   -7.3496 C.ar    1  UNL1        0.0869
     21 O          15.9168   70.2593   -7.8814 O.2     1  UNL1       -0.2464
     22 O          19.2877   70.4069  -10.7661 O.2     1  UNL1       -0.2670
     23 H          16.9634   70.0297  -10.0708 H       1  UNL1        0.1734
     24 O          20.8529   70.9865   -0.8311 O.3     1  UNL1       -0.2703
     25 P          22.0568   71.1115    0.2295 P.3     1  UNL1        0.2208
     26 O          21.9504   70.0235    1.2266 O.2     1  UNL1       -0.5170
     27 O          23.4657   70.9954   -0.5422 O.3     1  UNL1       -0.4371
     28 O          21.9706   72.5348    0.9756 O.3     1  UNL1       -0.2858
     29 C          20.8808   72.4560    1.8952 C.3     1  UNL1        0.2704
     30 C          19.9580   73.6593    1.6955 C.3     1  UNL1        0.1967
     31 C          20.7605   74.9452    1.9168 C.3     1  UNL1        0.1715
     32 C          21.4432   74.8671    3.2870 C.3     1  UNL1        0.1694
     33 C          22.2556   73.5721    3.3652 C.3     1  UNL1        0.1761
     34 O          19.4323   73.6441    0.3671 O.3     1  UNL1       -0.3775
     35 O          19.8820   76.0719    1.8790 O.3     1  UNL1       -0.3794
     36 O          20.4525   74.8782    4.3158 O.3     1  UNL1       -0.3794
     37 O          21.3858   72.4492    3.2285 O.3     1  UNL1       -0.3258
     38 H          18.9423   72.8161    0.2705 H       1  UNL1        0.2106
     39 H          19.4673   76.0742    1.0070 H       1  UNL1        0.2105
     40 H          19.9635   75.7063    4.2244 H       1  UNL1        0.2105
     41 C          22.9693   73.5006    4.7171 C.3     1  UNL1        0.1693
     42 O          22.1521   72.7904    5.6492 O.3     1  UNL1       -0.3794
     43 H          22.6370   72.7672    6.4856 H       1  UNL1        0.2105
@<TRIPOS>BOND
     1    15    16   ar
     2    15    20   ar
     3    15     6    1
     4    16    17   ar
     5    16    21    2
     6    17    18   ar
     7    17    23    1
     8    18    19   ar
     9    18    22    2
    10    19    20   ar
    11     6     7    1
    12     6    11    1
    13     7     8    1
    14     7     9    1
    15     8    13    1
    16     9    10    1
    17     9    12    1
    18    10    11    1
    19    10     5    1
    20    12    14    1
    21     5     4    1
    22     4     1    1
    23     1     2    2
    24     1     3    1
    25     1    24    1
    26    24    25    1
    27    25    26    2
    28    25    27    1
    29    25    28    1
    30    28    29    1
    31    29    30    1
    32    29    37    1
    33    30    31    1
    34    30    34    1
    35    31    32    1
    36    31    35    1
    37    32    33    1
    38    32    36    1
    39    33    41    1
    40    33    37    1
    41    41    42    1
    42    34    38    1
    43    35    39    1
    44    36    40    1
    45    42    43    1
@<TRIPOS>MOLECULE
GDU
 43 45 0 0 0
SMALL
GASTEIGER

@<TRIPOS>ATOM
      1 P          20.4138   71.0628   -1.7397 P.3     1  UNL1        0.2189
      2 O          20.3668   72.5417   -1.7204 O.2     1  UNL1       -0.5170
      3 O          20.7327   70.5168   -0.2588 O.3     1  UNL1       -0.4371
      4 O          18.9944   70.4867   -2.2300 O.3     1  UNL1       -0.3112
      5 C          18.1909   71.6131   -2.5849 C.3     1  UNL1        0.1811
      6 C          16.8709   70.5323   -5.7498 C.3     1  UNL1        0.2383
      7 C          17.1848   69.2181   -4.9899 C.3     1  UNL1        0.1895
      8 O          16.2829   68.1783   -5.3753 O.3     1  UNL1       -0.3779
      9 C          16.9524   69.6330   -3.5137 C.3     1  UNL1        0.1713
     10 C          17.0756   71.1679   -3.5325 C.3     1  UNL1        0.1764
     11 O          17.3943   71.5580   -4.8795 O.3     1  UNL1       -0.3308
     12 O          15.6499   69.2342   -3.0819 O.3     1  UNL1       -0.3794
     13 H          16.5311   67.3921   -4.8693 H       1  UNL1        0.2106
     14 H          15.6156   68.2703   -3.1486 H       1  UNL1        0.2105
     15 N          17.5528   70.5573   -7.0449 N.ar    1  UNL1       -0.2551
     16 C          16.8302   70.5730   -8.1788 C.ar    1  UNL1        0.3323
     17 N          17.4325   70.5997   -9.3823 N.ar    1  UNL1       -0.2743
     18 C          18.7765   70.6010   -9.4702 C.ar    1  UNL1        0.2626
     19 C          19.5506   70.5788   -8.2842 C.ar    1  UNL1        0.0795
     20 C          18.9210   70.5566   -7.0902 C.ar    1  UNL1        0.0869
     21 O          15.6169   70.5725   -8.1155 O.2     1  UNL1       -0.2464
     22 O          19.3226   70.6203  -10.5592 O.2     1  UNL1       -0.2670
     23 H          16.8953   70.6151  -10.1904 H       1  UNL1        0.1734
     24 O          21.5696   70.5768   -2.7498 O.3     1  UNL1       -0.2703
     25 P          22.8869   71.4317   -2.3977 P.3     1  UNL1        0.2208
     26 O          23.0230   71.5450   -0.9288 O.2     1  UNL1       -0.5170
     27 O          24.1839   70.6913   -3.0008 O.3     1  UNL1       -0.4371
     28 O          22.7619   72.9015   -3.0411 O.3     1  UNL1       -0.2858
     29 C          23.9219   73.1004   -3.8501 C.3     1  UNL1        0.2704
     30 C          24.3892   74.5511   -3.7224 C.3     1  UNL1        0.1967
     31 C          23.2552   75.4810   -4.1650 C.3     1  UNL1        0.1715
     32 C          22.7987   75.0639   -5.5676 C.3     1  UNL1        0.1694
     33 C          22.4499   73.5735   -5.5548 C.3     1  UNL1        0.1761
     34 O          24.7321   74.8255   -2.3629 O.3     1  UNL1       -0.3775
     35 O          23.7240   76.8308   -4.1916 O.3     1  UNL1       -0.3794
     36 O          23.8499   75.3055   -6.5038 O.3     1  UNL1       -0.3794
     37 O          23.6060   72.8115   -5.2101 O.3     1  UNL1       -0.3258
     38 H          25.4425   74.2140   -2.1254 H       1  UNL1        0.2106
     39 H          24.0107   77.0452   -3.2950 H       1  UNL1        0.2105
     40 H          24.0394   76.2523   -6.4736 H       1  UNL1        0.2105
     41 C          21.9599   73.1542   -6.9426 C.3     1  UNL1        0.1693
     42 O          22.6972   73.8618   -7.9410 O.3     1  UNL1       -0.3794
     43 H          22.3593   73.5691   -8.7985 H       1  UNL1        0.2105
@<TRIPOS>BOND
     1    15    16   ar
     2    15    20   ar
     3    15     6    1
     4    16    17   ar
     5    16    21    2
     6    17    18   ar
     7    17    23    1
     8    18    19   ar
     9    18    22    2
    10    19    20   ar
    11     6     7    1
    12     6    11    1
    13     7     8    1
    14     7     9    1
    15     8    13    1
    16     9    10    1
    17     9    12    1
    18    10    11    1
    19    10     5    1
    20    12    14    1
    21     5     4    1
    22     4     1    1
    23     1     2    2
    24     1     3    1
    25     1    24    1
    26    24    25    1
    27    25    26    2
    28    25    27    1
    29    25    28    1
    30    28    29    1
    31    29    30    1
    32    29    37    1
    33    30    31    1
    34    30    34    1
    35    31    32    1
    36    31    35    1
    37    32    33    1
    38    32    36    1
    39    33    41    1
    40    33    37    1
    41    41    42    1
    42    34    38    1
    43    35    39    1
    44    36    40    1
    45    42    43    1
@<TRIPOS>MOLECULE
GDU
 43 45 0 0 0
SMALL
GASTEIGER

@<TRIPOS>ATOM
      1 P          23.4633   72.1611   -3.3214 P.3     1  UNL1        0.2189
      2 O          24.2211   72.8783   -4.3706 O.2     1  UNL1       -0.5170
      3 O          24.2130   70.7809   -2.9666 O.3     1  UNL1       -0.4371
      4 O          23.3734   73.0773   -2.0026 O.3     1  UNL1       -0.3112
      5 C          22.0146   73.0384   -1.5635 C.3     1  UNL1        0.1811
      6 C          23.2903   72.0445    1.6478 C.3     1  UNL1        0.2383
      7 C          22.5170   73.3588    1.9261 C.3     1  UNL1        0.1895
      8 O          21.9657   73.3566    3.2450 O.3     1  UNL1       -0.3779
      9 C          21.3943   73.3078    0.8573 C.3     1  UNL1        0.1713
     10 C          21.9351   72.3352   -0.2073 C.3     1  UNL1        0.1764
     11 O          23.2498   71.9279    0.2096 O.3     1  UNL1       -0.3308
     12 O          20.1825   72.8110    1.4290 O.3     1  UNL1       -0.3794
     13 H          21.5002   74.1975    3.3540 H       1  UNL1        0.2106
     14 H          19.9274   73.4301    2.1263 H       1  UNL1        0.2105
     15 N          24.6727   72.1475    2.1181 N.ar    1  UNL1       -0.2551
     16 C          25.4188   71.0358    2.2440 C.ar    1  UNL1        0.3323
     17 N          26.6936   71.1033    2.6710 N.ar    1  UNL1       -0.2743
     18 C          27.2419   72.2914    2.9900 C.ar    1  UNL1        0.2626
     19 C          26.4661   73.4702    2.8678 C.ar    1  UNL1        0.0795
     20 C          25.1915   73.3745    2.4332 C.ar    1  UNL1        0.0869
     21 O          24.9381   69.9569    1.9596 O.2     1  UNL1       -0.2464
     22 O          28.3942   72.3530    3.3811 O.2     1  UNL1       -0.2670
     23 H          27.2188   70.2912    2.7518 H       1  UNL1        0.1734
     24 O          21.9787   71.8416   -3.8566 O.3     1  UNL1       -0.2703
     25 P          21.7780   72.6893   -5.2098 P.3     1  UNL1        0.2208
     26 O          21.9539   74.1295   -4.9200 O.2     1  UNL1       -0.5170
     27 O          22.8684   72.2247   -6.3004 O.3     1  UNL1       -0.4371
     28 O          20.2986   72.4343   -5.7896 O.3     1  UNL1       -0.2858
     29 C          20.2696   71.0922   -6.2773 C.3     1  UNL1        0.2704
     30 C          19.7803   71.0875   -7.7264 C.3     1  UNL1        0.1967
     31 C          18.3835   71.7138   -7.7830 C.3     1  UNL1        0.1715
     32 C          17.4776   70.9821   -6.7863 C.3     1  UNL1        0.1694
     33 C          18.1412   70.9966   -5.4070 C.3     1  UNL1        0.1761
     34 O          20.6796   71.8454   -8.5377 O.3     1  UNL1       -0.3775
     35 O          17.8523   71.5838   -9.1034 O.3     1  UNL1       -0.3794
     36 O          17.2861   69.6334   -7.2156 O.3     1  UNL1       -0.3794
     37 O          19.3922   70.3130   -5.4675 O.3     1  UNL1       -0.3258
     38 H          21.5452   71.4205   -8.4664 H       1  UNL1        0.2106
     39 H          18.4581   72.0469   -9.6957 H       1  UNL1        0.2105
     40 H          16.8725   69.6733   -8.0877 H       1  UNL1        0.2105
     41 C          17.2286   70.2981   -4.3965 C.3     1  UNL1        0.1693
     42 O          17.4357   68.8863   -4.4652 O.3     1  UNL1       -0.3794
     43 H          16.8441   68.4846   -3.8142 H       1  UNL1        0.2105
@<TRIPOS>BOND
     1    15    16   ar
     2    15    20   ar
     3    15     6    1
     4    16    17   ar
     5    16    21    2
     6    17    18   ar
     7    17    23    1
     8    18    19   ar
     9    18    22    2
    10    19    20   ar
    11     6     7    1
    12     6    11    1
    13     7     8    1
    14     7     9    1
    15     8    13    1
    16     9    10    1
    17     9    12    1
    18    10    11    1
    19    10     5    1
    20    12    14    1
    21     5     4    1
    22     4     1    1
    23     1     2    2
    24     1     3    1
    25     1    24    1
    26    24    25    1
    27    25    26    2
    28    25    27    1
    29    25    28    1
    30    28    29    1
    31    29    30    1
    32    29    37    1
    33    30    31    1
    34    30    34    1
    35    31    32    1
    36    31    35    1
    37    32    33    1
    38    32    36    1
    39    33    41    1
    40    33    37    1
    41    41    42    1
    42    34    38    1
    43    35    39    1
    44    36    40    1
    45    42    43    1
@<TRIPOS>MOLECULE
GDU
 43 45 0 0 0
SMALL
GASTEIGER

@<TRIPOS>ATOM
      1 P          17.7909   69.5671   -2.7277 P.3     1  UNL1        0.2189
      2 O          18.0513   68.2151   -3.2699 O.2     1  UNL1       -0.5170
      3 O          16.3146   69.6128   -2.0862 O.3     1  UNL1       -0.4371
      4 O          18.8793   69.9100   -1.5943 O.3     1  UNL1       -0.3112
      5 C          19.7187   70.9373   -2.1240 C.3     1  UNL1        0.1811
      6 C          21.6788   72.6054    0.3866 C.3     1  UNL1        0.2383
      7 C          21.9571   73.3993   -0.9154 C.3     1  UNL1        0.1895
      8 O          22.2215   74.7742   -0.6276 O.3     1  UNL1       -0.3779
      9 C          20.6192   73.2424   -1.6839 C.3     1  UNL1        0.1713
     10 C          19.9676   71.9988   -1.0510 C.3     1  UNL1        0.1764
     11 O          20.8805   71.4900   -0.0631 O.3     1  UNL1       -0.3308
     12 O          19.7972   74.3961   -1.4966 O.3     1  UNL1       -0.3794
     13 H          22.3859   75.2100   -1.4755 H       1  UNL1        0.2106
     14 H          20.2839   75.1486   -1.8594 H       1  UNL1        0.2105
     15 N          22.9298   72.1364    0.9847 N.ar    1  UNL1       -0.2551
     16 C          23.7454   71.3322    0.2803 C.ar    1  UNL1        0.3323
     17 N          24.9031   70.8899    0.8056 N.ar    1  UNL1       -0.2743
     18 C          25.2600   71.2400    2.0563 C.ar    1  UNL1        0.2626
     19 C          24.4079   72.0819    2.8122 C.ar    1  UNL1        0.0795
     20 C          23.2547   72.5147    2.2596 C.ar    1  UNL1        0.0869
     21 O          23.4371   71.0082   -0.8494 O.2     1  UNL1       -0.2464
     22 O          26.3054   70.8362    2.5344 O.2     1  UNL1       -0.2670
     23 H          25.4817   70.3136    0.2813 H       1  UNL1        0.1734
     24 O          17.8920   70.6493   -3.9156 O.3     1  UNL1       -0.2703
     25 P          16.8039   70.2284   -5.0241 P.3     1  UNL1        0.2208
     26 O          16.1327   68.9778   -4.6063 O.2     1  UNL1       -0.5170
     27 O          15.7092   71.4003   -5.1733 O.3     1  UNL1       -0.4371
     28 O          17.5378   69.9982   -6.4378 O.3     1  UNL1       -0.2858
     29 C          17.7450   71.2890   -7.0128 C.3     1  UNL1        0.2704
     30 C          17.8270   71.1612   -8.5347 C.3     1  UNL1        0.1967
     31 C          18.9789   70.2176   -8.8945 C.3     1  UNL1        0.1715
     32 C          20.2560   70.7210   -8.2124 C.3     1  UNL1        0.1694
     33 C          19.9900   70.8803   -6.7134 C.3     1  UNL1        0.1761
     34 O          16.5986   70.6328   -9.0376 O.3     1  UNL1       -0.3775
     35 O          19.1625   70.2027  -10.3117 O.3     1  UNL1       -0.3794
     36 O          20.6323   71.9799   -8.7722 O.3     1  UNL1       -0.3794
     37 O          18.9574   71.8433   -6.5075 O.3     1  UNL1       -0.3258
     38 H          15.9026   71.2536   -8.7824 H       1  UNL1        0.2106
     39 H          18.3338   69.8924  -10.6980 H       1  UNL1        0.2105
     40 H          20.7836   71.8329   -9.7150 H       1  UNL1        0.2105
     41 C          21.2693   71.3500   -6.0172 C.3     1  UNL1        0.1693
     42 O          21.0168   72.5816   -5.3388 O.3     1  UNL1       -0.3794
     43 H          21.8456   72.8421   -4.9139 H       1  UNL1        0.2105
@<TRIPOS>BOND
     1    15    16   ar
     2    15    20   ar
     3    15     6    1
     4    16    17   ar
     5    16    21    2
     6    17    18   ar
     7    17    23    1
     8    18    19   ar
     9    18    22    2
    10    19    20   ar
    11     6     7    1
    12     6    11    1
    13     7     8    1
    14     7     9    1
    15     8    13    1
    16     9    10    1
    17     9    12    1
    18    10    11    1
    19    10     5    1
    20    12    14    1
    21     5     4    1
    22     4     1    1
    23     1     2    2
    24     1     3    1
    25     1    24    1
    26    24    25    1
    27    25    26    2
    28    25    27    1
    29    25    28    1
    30    28    29    1
    31    29    30    1
    32    29    37    1
    33    30    31    1
    34    30    34    1
    35    31    32    1
    36    31    35    1
    37    32    33    1
    38    32    36    1
    39    33    41    1
    40    33    37    1
    41    41    42    1
    42    34    38    1
    43    35    39    1
    44    36    40    1
    45    42    43    1
@<TRIPOS>MOLECULE
GDU
 43 45 0 0 0
SMALL
GASTEIGER

@<TRIPOS>ATOM
      1 P          22.9682   72.9671   -4.4982 P.3     1  UNL1        0.2189
      2 O          24.4369   72.9444   -4.3194 O.2     1  UNL1       -0.5170
      3 O          22.5534   74.2578   -5.3671 O.3     1  UNL1       -0.4371
      4 O          22.4997   71.6321   -5.2631 O.3     1  UNL1       -0.3112
      5 C          22.0273   72.0362   -6.5492 C.3     1  UNL1        0.1811
      6 C          18.8554   70.3684   -6.2578 C.3     1  UNL1        0.2383
      7 C          18.5534   71.6346   -7.0996 C.3     1  UNL1        0.1895
      8 O          17.4811   71.3952   -8.0139 O.3     1  UNL1       -0.3779
      9 C          19.8896   71.8471   -7.8577 C.3     1  UNL1        0.1713
     10 C          20.9251   71.0821   -7.0126 C.3     1  UNL1        0.1764
     11 O          20.2356   70.5416   -5.8721 O.3     1  UNL1       -0.3308
     12 O          19.8084   71.3015   -9.1759 O.3     1  UNL1       -0.3794
     13 H          17.3438   72.2177   -8.5043 H       1  UNL1        0.2106
     14 H          19.1049   71.7806   -9.6344 H       1  UNL1        0.2105
     15 N          17.9927   70.3139   -5.0764 N.ar    1  UNL1       -0.2551
     16 C          16.8336   69.6342   -5.1280 C.ar    1  UNL1        0.3323
     17 N          16.0239   69.5656   -4.0549 N.ar    1  UNL1       -0.2743
     18 C          16.3595   70.1887   -2.9089 C.ar    1  UNL1        0.2626
     19 C          17.5748   70.9132   -2.8418 C.ar    1  UNL1        0.0795
     20 C          18.3703   70.9623   -3.9314 C.ar    1  UNL1        0.0869
     21 O          16.5177   69.0667   -6.1547 O.2     1  UNL1       -0.2464
     22 O          15.6250   70.1311   -1.9385 O.2     1  UNL1       -0.2670
     23 H          15.1931   69.0670   -4.1086 H       1  UNL1        0.1734
     24 O          22.2542   73.0401   -3.0569 O.3     1  UNL1       -0.2703
     25 P          22.7352   71.7448   -2.2318 P.3     1  UNL1        0.2208
     26 O          21.6877   70.7019   -2.2967 O.2     1  UNL1       -0.5170
     27 O          24.0986   71.1759   -2.8734 O.3     1  UNL1       -0.4371
     28 O          22.9948   72.1512   -0.6964 O.3     1  UNL1       -0.2858
     29 C          23.0832   70.9342    0.0458 C.3     1  UNL1        0.2704
     30 C          21.9141   70.8510    1.0284 C.3     1  UNL1        0.1967
     31 C          21.9640   72.0611    1.9662 C.3     1  UNL1        0.1715
     32 C          23.3537   72.1255    2.6098 C.3     1  UNL1        0.1694
     33 C          24.4143   72.1140    1.5061 C.3     1  UNL1        0.1761
     34 O          20.6811   70.8533    0.3067 O.3     1  UNL1       -0.3775
     35 O          20.9679   71.9229    2.9817 O.3     1  UNL1       -0.3794
     36 O          23.5363   70.9973    3.4663 O.3     1  UNL1       -0.3794
     37 O          24.3177   70.9027    0.7583 O.3     1  UNL1       -0.3258
     38 H          20.6966   70.0807   -0.2744 H       1  UNL1        0.2106
     39 H          20.1148   71.8745    2.5322 H       1  UNL1        0.2105
     40 H          22.8453   71.0425    4.1400 H       1  UNL1        0.2105
     41 C          25.8052   72.2126    2.1367 C.3     1  UNL1        0.1693
     42 O          26.2986   70.8995    2.4076 O.3     1  UNL1       -0.3794
     43 H          27.1750   71.0058    2.8025 H       1  UNL1        0.2105
@<TRIPOS>BOND
     1    15    16   ar
     2    15    20   ar
     3    15     6    1
     4    16    17   ar
     5    16    21    2
     6    17    18   ar
     7    17    23    1
     8    18    19   ar
     9    18    22    2
    10    19    20   ar
    11     6     7    1
    12     6    11    1
    13     7     8    1
    14     7     9    1
    15     8    13    1
    16     9    10    1
    17     9    12    1
    18    10    11    1
    19    10     5    1
    20    12    14    1
    21     5     4    1
    22     4     1    1
    23     1     2    2
    24     1     3    1
    25     1    24    1
    26    24    25    1
    27    25    26    2
    28    25    27    1
    29    25    28    1
    30    28    29    1
    31    29    30    1
    32    29    37    1
    33    30    31    1
    34    30    34    1
    35    31    32    1
    36    31    35    1
    37    32    33    1
    38    32    36    1
    39    33    41    1
    40    33    37    1
    41    41    42    1
    42    34    38    1
    43    35    39    1
    44    36    40    1
    45    42    43    1
@<TRIPOS>MOLECULE
GDU
 43 45 0 0 0
SMALL
GASTEIGER

@<TRIPOS>ATOM
      1 P          16.5735   69.6411   -2.8281 P.3     1  UNL1        0.2189
      2 O          16.7964   68.4479   -1.9819 O.2     1  UNL1       -0.5170
      3 O          16.2760   69.1778   -4.3413 O.3     1  UNL1       -0.4371
      4 O          15.3170   70.4721   -2.2645 O.3     1  UNL1       -0.3112
      5 C          15.1263   70.0651   -0.9086 C.3     1  UNL1        0.1811
      6 C          12.6204   68.1566    0.8249 C.3     1  UNL1        0.2383
      7 C          12.3122   69.6301    1.1946 C.3     1  UNL1        0.1895
      8 O          10.9128   69.8180    1.4172 O.3     1  UNL1       -0.3779
      9 C          12.7767   70.3879   -0.0763 C.3     1  UNL1        0.1713
     10 C          13.7516   69.4108   -0.7592 C.3     1  UNL1        0.1764
     11 O          13.8532   68.2470    0.0795 O.3     1  UNL1       -0.3308
     12 O          11.6625   70.6688   -0.9257 O.3     1  UNL1       -0.3794
     13 H          10.7890   70.7506    1.6423 H       1  UNL1        0.2106
     14 H          11.0619   71.2347   -0.4219 H       1  UNL1        0.2105
     15 N          12.8051   67.3478    2.0310 N.ar    1  UNL1       -0.2551
     16 C          12.5555   66.0270    1.9928 C.ar    1  UNL1        0.3323
     17 N          12.7207   65.2601    3.0867 N.ar    1  UNL1       -0.2743
     18 C          13.1317   65.8088    4.2461 C.ar    1  UNL1        0.2626
     19 C          13.3929   67.1998    4.3026 C.ar    1  UNL1        0.0795
     20 C          13.2232   67.9449    3.1897 C.ar    1  UNL1        0.0869
     21 O          12.1846   65.5177    0.9540 O.2     1  UNL1       -0.2464
     22 O          13.2770   65.1163    5.2379 O.2     1  UNL1       -0.2670
     23 H          12.5400   64.3078    3.0399 H       1  UNL1        0.1734
     24 O          17.8884   70.5700   -2.8014 O.3     1  UNL1       -0.2703
     25 P          17.6789   71.7076   -3.9204 P.3     1  UNL1        0.2208
     26 O          16.3518   72.3368   -3.7413 O.2     1  UNL1       -0.5170
     27 O          18.8276   72.8265   -3.7694 O.3     1  UNL1       -0.4371
     28 O          17.7664   71.0446   -5.3842 O.3     1  UNL1       -0.2858
     29 C          17.8672   72.1182   -6.3207 C.3     1  UNL1        0.2704
     30 C          16.6707   72.0774   -7.2726 C.3     1  UNL1        0.1967
     31 C          16.6555   70.7277   -7.9968 C.3     1  UNL1        0.1715
     32 C          18.0218   70.5103   -8.6567 C.3     1  UNL1        0.1694
     33 C          19.1165   70.6681   -7.5985 C.3     1  UNL1        0.1761
     34 O          15.4615   72.2368   -6.5285 O.3     1  UNL1       -0.3775
     35 O          15.6325   70.7298   -8.9947 O.3     1  UNL1       -0.3794
     36 O          18.2104   71.4742   -9.6936 O.3     1  UNL1       -0.3794
     37 O          19.0790   71.9891   -7.0605 O.3     1  UNL1       -0.3258
     38 H          15.5178   73.0939   -6.0848 H       1  UNL1        0.2106
     39 H          14.7957   70.8811   -8.5374 H       1  UNL1        0.2105
     40 H          17.4976   71.3417  -10.3321 H       1  UNL1        0.2105
     41 C          20.4833   70.4190   -8.2400 C.3     1  UNL1        0.1693
     42 O          21.4932   71.0871   -7.4820 O.3     1  UNL1       -0.3794
     43 H          22.3370   70.9048   -7.9180 H       1  UNL1        0.2105
@<TRIPOS>BOND
     1    15    16   ar
     2    15    20   ar
     3    15     6    1
     4    16    17   ar
     5    16    21    2
     6    17    18   ar
     7    17    23    1
     8    18    19   ar
     9    18    22    2
    10    19    20   ar
    11     6     7    1
    12     6    11    1
    13     7     8    1
    14     7     9    1
    15     8    13    1
    16     9    10    1
    17     9    12    1
    18    10    11    1
    19    10     5    1
    20    12    14    1
    21     5     4    1
    22     4     1    1
    23     1     2    2
    24     1     3    1
    25     1    24    1
    26    24    25    1
    27    25    26    2
    28    25    27    1
    29    25    28    1
    30    28    29    1
    31    29    30    1
    32    29    37    1
    33    30    31    1
    34    30    34    1
    35    31    32    1
    36    31    35    1
    37    32    33    1
    38    32    36    1
    39    33    41    1
    40    33    37    1
    41    41    42    1
    42    34    38    1
    43    35    39    1
    44    36    40    1
    45    42    43    1
@<TRIPOS>MOLECULE
GDU
 43 45 0 0 0
SMALL
GASTEIGER

@<TRIPOS>ATOM
      1 P          21.4430   71.3295   -0.1659 P.3     1  UNL1        0.2189
      2 O          20.1826   72.1001   -0.0818 O.2     1  UNL1       -0.5170
      3 O          21.4293   70.1564    0.9371 O.3     1  UNL1       -0.4371
      4 O          21.5817   70.6852   -1.6330 O.3     1  UNL1       -0.3112
      5 C          21.1716   71.6868   -2.5653 C.3     1  UNL1        0.1811
      6 C          20.4666   70.9822   -6.0198 C.3     1  UNL1        0.2383
      7 C          20.9433   72.4572   -6.0130 C.3     1  UNL1        0.1895
      8 O          21.6033   72.7855   -7.2377 O.3     1  UNL1       -0.3779
      9 C          21.9414   72.4705   -4.8260 C.3     1  UNL1        0.1713
     10 C          21.5376   71.2462   -3.9837 C.3     1  UNL1        0.1764
     11 O          20.3958   70.6446   -4.6182 O.3     1  UNL1       -0.3308
     12 O          23.2831   72.3396   -5.3000 O.3     1  UNL1       -0.3794
     13 H          21.8735   73.7119   -7.1693 H       1  UNL1        0.2106
     14 H          23.4557   73.1035   -5.8669 H       1  UNL1        0.2105
     15 N          19.1481   70.8670   -6.6453 N.ar    1  UNL1       -0.2551
     16 C          19.0528   70.5218   -7.9414 C.ar    1  UNL1        0.3323
     17 N          17.8526   70.4054   -8.5396 N.ar    1  UNL1       -0.2743
     18 C          16.7219   70.6440   -7.8476 C.ar    1  UNL1        0.2626
     19 C          16.8072   71.0141   -6.4830 C.ar    1  UNL1        0.0795
     20 C          18.0235   71.1194   -5.9067 C.ar    1  UNL1        0.0869
     21 O          20.0639   70.3030   -8.5785 O.2     1  UNL1       -0.2464
     22 O          15.6353   70.5436   -8.3894 O.2     1  UNL1       -0.2670
     23 H          17.8023   70.1511   -9.4748 H       1  UNL1        0.1734
     24 O          22.6898   72.3100    0.1111 O.3     1  UNL1       -0.2703
     25 P          23.3839   71.8088    1.4738 P.3     1  UNL1        0.2208
     26 O          22.3941   71.8435    2.5730 O.2     1  UNL1       -0.5170
     27 O          23.9181   70.3016    1.2808 O.3     1  UNL1       -0.4371
     28 O          24.6209   72.7733    1.8336 O.3     1  UNL1       -0.2858
     29 C          24.2129   73.5753    2.9427 C.3     1  UNL1        0.2704
     30 C          23.8457   74.9760    2.4504 C.3     1  UNL1        0.1967
     31 C          25.0619   75.5945    1.7541 C.3     1  UNL1        0.1715
     32 C          26.2583   75.5320    2.7103 C.3     1  UNL1        0.1694
     33 C          26.4438   74.0875    3.1817 C.3     1  UNL1        0.1761
     34 O          22.7574   74.8895    1.5288 O.3     1  UNL1       -0.3775
     35 O          24.7827   76.9555    1.4190 O.3     1  UNL1       -0.3794
     36 O          26.0164   76.3791    3.8345 O.3     1  UNL1       -0.3794
     37 O          25.2793   73.6575    3.8853 O.3     1  UNL1       -0.3258
     38 H          22.0184   74.4890    2.0067 H       1  UNL1        0.2106
     39 H          24.0189   76.9472    0.8284 H       1  UNL1        0.2105
     40 H          25.9003   77.2744    3.4904 H       1  UNL1        0.2105
     41 C          27.6574   74.0078    4.1105 C.3     1  UNL1        0.1693
     42 O          27.2522   74.3013    5.4486 O.3     1  UNL1       -0.3794
     43 H          28.0438   74.2398    6.0007 H       1  UNL1        0.2105
@<TRIPOS>BOND
     1    15    16   ar
     2    15    20   ar
     3    15     6    1
     4    16    17   ar
     5    16    21    2
     6    17    18   ar
     7    17    23    1
     8    18    19   ar
     9    18    22    2
    10    19    20   ar
    11     6     7    1
    12     6    11    1
    13     7     8    1
    14     7     9    1
    15     8    13    1
    16     9    10    1
    17     9    12    1
    18    10    11    1
    19    10     5    1
    20    12    14    1
    21     5     4    1
    22     4     1    1
    23     1     2    2
    24     1     3    1
    25     1    24    1
    26    24    25    1
    27    25    26    2
    28    25    27    1
    29    25    28    1
    30    28    29    1
    31    29    30    1
    32    29    37    1
    33    30    31    1
    34    30    34    1
    35    31    32    1
    36    31    35    1
    37    32    33    1
    38    32    36    1
    39    33    41    1
    40    33    37    1
    41    41    42    1
    42    34    38    1
    43    35    39    1
    44    36    40    1
    45    42    43    1
@<TRIPOS>MOLECULE
GDU
 43 45 0 0 0
SMALL
GASTEIGER

@<TRIPOS>ATOM
      1 P          22.5758   72.6988   -4.4886 P.3     1  UNL1        0.2189
      2 O          23.1551   73.2461   -5.7353 O.2     1  UNL1       -0.5170
      3 O          23.6550   71.7442   -3.7694 O.3     1  UNL1       -0.4371
      4 O          22.1865   73.9075   -3.5015 O.3     1  UNL1       -0.3112
      5 C          20.8021   73.7535   -3.1848 C.3     1  UNL1        0.1811
      6 C          21.6408   73.5871    0.3075 C.3     1  UNL1        0.2383
      7 C          22.2834   74.9092   -0.1843 C.3     1  UNL1        0.1895
      8 O          22.3208   75.8792    0.8649 O.3     1  UNL1       -0.3779
      9 C          21.3073   75.3467   -1.3074 C.3     1  UNL1        0.1713
     10 C          20.5813   74.0464   -1.6996 C.3     1  UNL1        0.1764
     11 O          21.1382   72.9855   -0.9044 O.3     1  UNL1       -0.3308
     12 O          20.3804   76.3159   -0.8142 O.3     1  UNL1       -0.3794
     13 H          22.7301   76.6741    0.4954 H       1  UNL1        0.2106
     14 H          20.8993   77.0808   -0.5306 H       1  UNL1        0.2105
     15 N          22.6446   72.7249    0.9335 N.ar    1  UNL1       -0.2551
     16 C          22.2765   71.5391    1.4500 C.ar    1  UNL1        0.3323
     17 N          23.1803   70.7260    2.0278 N.ar    1  UNL1       -0.2743
     18 C          24.4735   71.0941    2.1071 C.ar    1  UNL1        0.2626
     19 C          24.8747   72.3429    1.5725 C.ar    1  UNL1        0.0795
     20 C          23.9486   73.1372    0.9946 C.ar    1  UNL1        0.0869
     21 O          21.1136   71.1932    1.3855 O.2     1  UNL1       -0.2464
     22 O          25.2915   70.3609    2.6342 O.2     1  UNL1       -0.2670
     23 H          22.8977   69.8718    2.3915 H       1  UNL1        0.1734
     24 O          21.2566   71.8454   -4.8403 O.3     1  UNL1       -0.2703
     25 P          20.7645   72.3255   -6.2954 P.3     1  UNL1        0.2208
     26 O          21.0960   73.7555   -6.4810 O.2     1  UNL1       -0.5170
     27 O          21.5056   71.4521   -7.4276 O.3     1  UNL1       -0.4371
     28 O          19.1728   72.1223   -6.4188 O.3     1  UNL1       -0.2858
     29 C          18.9523   70.7423   -6.7137 C.3     1  UNL1        0.2704
     30 C          18.0917   70.6218   -7.9723 C.3     1  UNL1        0.1967
     31 C          16.7614   71.3440   -7.7377 C.3     1  UNL1        0.1715
     32 C          16.1243   70.7936   -6.4567 C.3     1  UNL1        0.1694
     33 C          17.1343   70.9031   -5.3118 C.3     1  UNL1        0.1761
     34 O          18.7734   71.2182   -9.0772 O.3     1  UNL1       -0.3775
     35 O          15.8892   71.1161   -8.8467 O.3     1  UNL1       -0.3794
     36 O          15.7629   69.4257   -6.6524 O.3     1  UNL1       -0.3794
     37 O          18.2903   70.1229   -5.6134 O.3     1  UNL1       -0.3258
     38 H          19.6059   70.7380   -9.1835 H       1  UNL1        0.2106
     39 H          16.3341   71.4659   -9.6291 H       1  UNL1        0.2105
     40 H          15.1323   69.4047   -7.3839 H       1  UNL1        0.2105
     41 C          16.4960   70.3877   -4.0199 C.3     1  UNL1        0.1693
     42 O          16.0165   69.0575   -4.2242 O.3     1  UNL1       -0.3794
     43 H          15.6234   68.7703   -3.3886 H       1  UNL1        0.2105
@<TRIPOS>BOND
     1    15    16   ar
     2    15    20   ar
     3    15     6    1
     4    16    17   ar
     5    16    21    2
     6    17    18   ar
     7    17    23    1
     8    18    19   ar
     9    18    22    2
    10    19    20   ar
    11     6     7    1
    12     6    11    1
    13     7     8    1
    14     7     9    1
    15     8    13    1
    16     9    10    1
    17     9    12    1
    18    10    11    1
    19    10     5    1
    20    12    14    1
    21     5     4    1
    22     4     1    1
    23     1     2    2
    24     1     3    1
    25     1    24    1
    26    24    25    1
    27    25    26    2
    28    25    27    1
    29    25    28    1
    30    28    29    1
    31    29    30    1
    32    29    37    1
    33    30    31    1
    34    30    34    1
    35    31    32    1
    36    31    35    1
    37    32    33    1
    38    32    36    1
    39    33    41    1
    40    33    37    1
    41    41    42    1
    42    34    38    1
    43    35    39    1
    44    36    40    1
    45    42    43    1
@<TRIPOS>MOLECULE
GDU
 43 45 0 0 0
SMALL
GASTEIGER

@<TRIPOS>ATOM
      1 P          21.4823   71.4006    0.0432 P.3     1  UNL1        0.2189
      2 O          21.5303   70.1357    0.8096 O.2     1  UNL1       -0.5170
      3 O          20.1021   72.1674    0.3593 O.3     1  UNL1       -0.4371
      4 O          22.7230   72.3324    0.4665 O.3     1  UNL1       -0.3112
      5 C          23.1608   71.8810    1.7491 C.3     1  UNL1        0.1811
      6 C          25.7280   73.7736    3.4091 C.3     1  UNL1        0.2383
      7 C          25.6776   74.3604    1.9752 C.3     1  UNL1        0.1895
      8 O          26.0313   75.7453    1.9783 O.3     1  UNL1       -0.3779
      9 C          24.1849   74.1716    1.5991 C.3     1  UNL1        0.1713
     10 C          23.6952   73.0671    2.5540 C.3     1  UNL1        0.1764
     11 O          24.8215   72.6521    3.3461 O.3     1  UNL1       -0.3308
     12 O          23.4590   75.3839    1.8116 O.3     1  UNL1       -0.3794
     13 H          25.9808   76.0481    1.0608 H       1  UNL1        0.2106
     14 H          23.8498   76.0500    1.2300 H       1  UNL1        0.2105
     15 N          27.0820   73.3245    3.7377 N.ar    1  UNL1       -0.2551
     16 C          27.5509   72.1793    3.2114 C.ar    1  UNL1        0.3323
     17 N          28.7934   71.7460    3.4947 N.ar    1  UNL1       -0.2743
     18 C          29.5876   72.4519    4.3224 C.ar    1  UNL1        0.2626
     19 C          29.1049   73.6572    4.8886 C.ar    1  UNL1        0.0795
     20 C          27.8564   74.0710    4.5845 C.ar    1  UNL1        0.0869
     21 O          26.8462   71.5320    2.4627 O.2     1  UNL1       -0.2464
     22 O          30.7106   72.0580    4.5831 O.2     1  UNL1       -0.2670
     23 H          29.1170   70.9194    3.1026 H       1  UNL1        0.1734
     24 O          21.5659   71.0762   -1.5317 O.3     1  UNL1       -0.2703
     25 P          20.0809   71.2579   -2.1250 P.3     1  UNL1        0.2208
     26 O          19.1702   70.2861   -1.4805 O.2     1  UNL1       -0.5170
     27 O          19.5645   72.7545   -1.8291 O.3     1  UNL1       -0.4371
     28 O          20.1018   71.0031   -3.7139 O.3     1  UNL1       -0.2858
     29 C          19.2798   72.0095   -4.3064 C.3     1  UNL1        0.2704
     30 C          18.2303   71.3481   -5.2011 C.3     1  UNL1        0.1967
     31 C          18.9417   70.5263   -6.2804 C.3     1  UNL1        0.1715
     32 C          19.9409   71.4331   -7.0077 C.3     1  UNL1        0.1694
     33 C          20.8626   72.0869   -5.9752 C.3     1  UNL1        0.1761
     34 O          17.4014   70.4913   -4.4136 O.3     1  UNL1       -0.3775
     35 O          17.9813   70.0224   -7.2111 O.3     1  UNL1       -0.3794
     36 O          19.2329   72.4416   -7.7299 O.3     1  UNL1       -0.3794
     37 O          20.0918   72.8886   -5.0812 O.3     1  UNL1       -0.3258
     38 H          16.9803   71.0482   -3.7448 H       1  UNL1        0.2106
     39 H          17.3689   69.4695   -6.7096 H       1  UNL1        0.2105
     40 H          18.6629   71.9850   -8.3622 H       1  UNL1        0.2105
     41 C          21.8866   72.9683   -6.6940 C.3     1  UNL1        0.1693
     42 O          23.1025   72.2388   -6.8685 O.3     1  UNL1       -0.3794
     43 H          23.7193   72.8278   -7.3245 H       1  UNL1        0.2105
@<TRIPOS>BOND
     1    15    16   ar
     2    15    20   ar
     3    15     6    1
     4    16    17   ar
     5    16    21    2
     6    17    18   ar
     7    17    23    1
     8    18    19   ar
     9    18    22    2
    10    19    20   ar
    11     6     7    1
    12     6    11    1
    13     7     8    1
    14     7     9    1
    15     8    13    1
    16     9    10    1
    17     9    12    1
    18    10    11    1
    19    10     5    1
    20    12    14    1
    21     5     4    1
    22     4     1    1
    23     1     2    2
    24     1     3    1
    25     1    24    1
    26    24    25    1
    27    25    26    2
    28    25    27    1
    29    25    28    1
    30    28    29    1
    31    29    30    1
    32    29    37    1
    33    30    31    1
    34    30    34    1
    35    31    32    1
    36    31    35    1
    37    32    33    1
    38    32    36    1
    39    33    41    1
    40    33    37    1
    41    41    42    1
    42    34    38    1
    43    35    39    1
    44    36    40    1
    45    42    43    1
@<TRIPOS>MOLECULE
GDU
 43 45 0 0 0
SMALL
GASTEIGER

@<TRIPOS>ATOM
      1 P          21.9842   72.4088   -6.2397 P.3     1  UNL1        0.2189
      2 O          22.8709   73.3313   -6.9829 O.2     1  UNL1       -0.5170
      3 O          20.6136   73.1669   -5.8657 O.3     1  UNL1       -0.4371
      4 O          21.6560   71.1266   -7.1535 O.3     1  UNL1       -0.3112
      5 C          20.6787   71.5393   -8.1100 C.3     1  UNL1        0.1811
      6 C          17.6182   70.1041   -6.8848 C.3     1  UNL1        0.2383
      7 C          17.1660   71.1266   -7.9585 C.3     1  UNL1        0.1895
      8 O          15.9576   70.7001   -8.5919 O.3     1  UNL1       -0.3779
      9 C          18.3534   71.0971   -8.9557 C.3     1  UNL1        0.1713
     10 C          19.5240   70.5360   -8.1273 C.3     1  UNL1        0.1764
     11 O          19.0417   70.3232   -6.7893 O.3     1  UNL1       -0.3308
     12 O          18.0571   70.2401  -10.0601 O.3     1  UNL1       -0.3794
     13 H          15.7314   71.3767   -9.2453 H       1  UNL1        0.2106
     14 H          17.2817   70.6112  -10.5025 H       1  UNL1        0.2105
     15 N          16.9671   70.3774   -5.6025 N.ar    1  UNL1       -0.2551
     16 C          16.4328   69.3651   -4.8968 C.ar    1  UNL1        0.3323
     17 N          15.8316   69.5888   -3.7134 N.ar    1  UNL1       -0.2743
     18 C          15.7467   70.8390   -3.2194 C.ar    1  UNL1        0.2626
     19 C          16.3000   71.9159   -3.9546 C.ar    1  UNL1        0.0795
     20 C          16.9011   71.6630   -5.1366 C.ar    1  UNL1        0.0869
     21 O          16.5020   68.2319   -5.3294 O.2     1  UNL1       -0.2464
     22 O          15.1986   71.0431   -2.1506 O.2     1  UNL1       -0.2670
     23 H          15.4552   68.8457   -3.2155 H       1  UNL1        0.1734
     24 O          22.7184   71.9326   -4.8883 O.3     1  UNL1       -0.2703
     25 P          22.9705   73.2533   -4.0039 P.3     1  UNL1        0.2208
     26 O          24.0988   74.0212   -4.5752 O.2     1  UNL1       -0.5170
     27 O          21.6430   74.1654   -4.0114 O.3     1  UNL1       -0.4371
     28 O          23.3201   72.8290   -2.4914 O.3     1  UNL1       -0.2858
     29 C          22.3779   73.4909   -1.6464 C.3     1  UNL1        0.2704
     30 C          23.0699   74.6434   -0.9169 C.3     1  UNL1        0.1967
     31 C          24.2351   74.0849   -0.0943 C.3     1  UNL1        0.1715
     32 C          23.7049   72.9658    0.8091 C.3     1  UNL1        0.1694
     33 C          22.9660   71.9387   -0.0523 C.3     1  UNL1        0.1761
     34 O          23.5638   75.5857   -1.8706 O.3     1  UNL1       -0.3775
     35 O          24.7994   75.1252    0.7068 O.3     1  UNL1       -0.3794
     36 O          22.8108   73.5164    1.7773 O.3     1  UNL1       -0.3794
     37 O          21.8570   72.5616   -0.6990 O.3     1  UNL1       -0.3258
     38 H          22.7992   75.9049   -2.3691 H       1  UNL1        0.2106
     39 H          25.1076   75.8099    0.0998 H       1  UNL1        0.2105
     40 H          23.3162   74.1598    2.2910 H       1  UNL1        0.2105
     41 C          22.4619   70.7989    0.8359 C.3     1  UNL1        0.1693
     42 O          21.0923   70.5292    0.5318 O.3     1  UNL1       -0.3794
     43 H          20.8141   69.8064    1.1110 H       1  UNL1        0.2105
@<TRIPOS>BOND
     1    15    16   ar
     2    15    20   ar
     3    15     6    1
     4    16    17   ar
     5    16    21    2
     6    17    18   ar
     7    17    23    1
     8    18    19   ar
     9    18    22    2
    10    19    20   ar
    11     6     7    1
    12     6    11    1
    13     7     8    1
    14     7     9    1
    15     8    13    1
    16     9    10    1
    17     9    12    1
    18    10    11    1
    19    10     5    1
    20    12    14    1
    21     5     4    1
    22     4     1    1
    23     1     2    2
    24     1     3    1
    25     1    24    1
    26    24    25    1
    27    25    26    2
    28    25    27    1
    29    25    28    1
    30    28    29    1
    31    29    30    1
    32    29    37    1
    33    30    31    1
    34    30    34    1
    35    31    32    1
    36    31    35    1
    37    32    33    1
    38    32    36    1
    39    33    41    1
    40    33    37    1
    41    41    42    1
    42    34    38    1
    43    35    39    1
    44    36    40    1
    45    42    43    1
@<TRIPOS>MOLECULE
GDU
 43 45 0 0 0
SMALL
GASTEIGER

@<TRIPOS>ATOM
      1 P          20.2926   71.9863   -1.9832 P.3     1  UNL1        0.2189
      2 O          20.8114   73.2324   -1.3769 O.2     1  UNL1       -0.5170
      3 O          18.7941   72.2336   -2.5186 O.3     1  UNL1       -0.4371
      4 O          21.2365   71.5530   -3.2112 O.3     1  UNL1       -0.3112
      5 C          20.5996   70.4467   -3.8523 C.3     1  UNL1        0.1811
      6 C          19.4104   71.5525   -7.0602 C.3     1  UNL1        0.2383
      7 C          20.3135   72.7089   -6.5602 C.3     1  UNL1        0.1895
      8 O          20.9312   73.3847   -7.6580 O.3     1  UNL1       -0.3779
      9 C          21.3689   71.9532   -5.7114 C.3     1  UNL1        0.1713
     10 C          20.6866   70.6155   -5.3702 C.3     1  UNL1        0.1764
     11 O          19.3642   70.6503   -5.9344 O.3     1  UNL1       -0.3308
     12 O          22.5590   71.7359   -6.4718 O.3     1  UNL1       -0.3794
     13 H          21.4763   74.0892   -7.2807 H       1  UNL1        0.2106
     14 H          22.9058   72.6078   -6.7046 H       1  UNL1        0.2105
     15 N          18.0698   72.0444   -7.3823 N.ar    1  UNL1       -0.2551
     16 C          17.3050   71.3703   -8.2591 C.ar    1  UNL1        0.3323
     17 N          16.0675   71.7992   -8.5699 N.ar    1  UNL1       -0.2743
     18 C          15.5770   72.9226   -8.0117 C.ar    1  UNL1        0.2626
     19 C          16.3736   73.6462   -7.0908 C.ar    1  UNL1        0.0795
     20 C          17.6095   73.1914   -6.7936 C.ar    1  UNL1        0.0869
     21 O          17.7337   70.3550   -8.7704 O.2     1  UNL1       -0.2464
     22 O          14.4589   73.3142   -8.2961 O.2     1  UNL1       -0.2670
     23 H          15.5277   71.2978   -9.2015 H       1  UNL1        0.1734
     24 O          20.2793   70.8171   -0.8762 O.3     1  UNL1       -0.2703
     25 P          21.6053   71.0046    0.0164 P.3     1  UNL1        0.2208
     26 O          21.7120   69.8882    0.9813 O.2     1  UNL1       -0.5170
     27 O          22.9002   71.0110   -0.9414 O.3     1  UNL1       -0.4371
     28 O          21.5231   72.3995    0.8150 O.3     1  UNL1       -0.2858
     29 C          21.5437   72.0823    2.2073 C.3     1  UNL1        0.2704
     30 C          21.1987   73.3317    3.0193 C.3     1  UNL1        0.1967
     31 C          22.2167   74.4308    2.6998 C.3     1  UNL1        0.1715
     32 C          23.6266   73.8739    2.9271 C.3     1  UNL1        0.1694
     33 C          23.7882   72.5834    2.1199 C.3     1  UNL1        0.1761
     34 O          19.8859   73.7785    2.6755 O.3     1  UNL1       -0.3775
     35 O          21.9970   75.5527    3.5575 O.3     1  UNL1       -0.3794
     36 O          23.8143   73.6008    4.3164 O.3     1  UNL1       -0.3794
     37 O          22.8414   71.6142    2.5672 O.3     1  UNL1       -0.3258
     38 H          19.2807   73.0545    2.8861 H       1  UNL1        0.2106
     39 H          21.0976   75.8614    3.3896 H       1  UNL1        0.2105
     40 H          23.6979   74.4379    4.7844 H       1  UNL1        0.2105
     41 C          25.2047   72.0372    2.3128 C.3     1  UNL1        0.1693
     42 O          25.2070   70.6280    2.0778 O.3     1  UNL1       -0.3794
     43 H          26.1157   70.3239    2.2086 H       1  UNL1        0.2105
@<TRIPOS>BOND
     1    15    16   ar
     2    15    20   ar
     3    15     6    1
     4    16    17   ar
     5    16    21    2
     6    17    18   ar
     7    17    23    1
     8    18    19   ar
     9    18    22    2
    10    19    20   ar
    11     6     7    1
    12     6    11    1
    13     7     8    1
    14     7     9    1
    15     8    13    1
    16     9    10    1
    17     9    12    1
    18    10    11    1
    19    10     5    1
    20    12    14    1
    21     5     4    1
    22     4     1    1
    23     1     2    2
    24     1     3    1
    25     1    24    1
    26    24    25    1
    27    25    26    2
    28    25    27    1
    29    25    28    1
    30    28    29    1
    31    29    30    1
    32    29    37    1
    33    30    31    1
    34    30    34    1
    35    31    32    1
    36    31    35    1
    37    32    33    1
    38    32    36    1
    39    33    41    1
    40    33    37    1
    41    41    42    1
    42    34    38    1
    43    35    39    1
    44    36    40    1
    45    42    43    1
@<TRIPOS>MOLECULE
GDU
 43 45 0 0 0
SMALL
GASTEIGER

@<TRIPOS>ATOM
      1 P          21.5104   71.5363   -1.3186 P.3     1  UNL1        0.2189
      2 O          21.2825   72.9275   -0.8687 O.2     1  UNL1       -0.5170
      3 O          20.3604   70.5828   -0.7175 O.3     1  UNL1       -0.4371
      4 O          21.4702   71.4781   -2.9254 O.3     1  UNL1       -0.3112
      5 C          22.2095   72.6050   -3.3990 C.3     1  UNL1        0.1811
      6 C          20.9655   72.2038   -6.7484 C.3     1  UNL1        0.2383
      7 C          20.9626   73.7360   -6.5132 C.3     1  UNL1        0.1895
      8 O          21.1883   74.4401   -7.7365 O.3     1  UNL1       -0.3779
      9 C          22.1578   73.9178   -5.5417 C.3     1  UNL1        0.1713
     10 C          22.3503   72.5221   -4.9200 C.3     1  UNL1        0.1764
     11 O          21.3286   71.6657   -5.4592 O.3     1  UNL1       -0.3308
     12 O          23.3272   74.3193   -6.2581 O.3     1  UNL1       -0.3794
     13 H          21.1743   75.3833   -7.5220 H       1  UNL1        0.2106
     14 H          23.1241   75.1691   -6.6721 H       1  UNL1        0.2105
     15 N          19.6357   71.7382   -7.1457 N.ar    1  UNL1       -0.2551
     16 C          19.5098   70.5931   -7.8392 C.ar    1  UNL1        0.3323
     17 N          18.2984   70.1411   -8.2136 N.ar    1  UNL1       -0.2743
     18 C          17.1877   70.8381   -7.9060 C.ar    1  UNL1        0.2626
     19 C          17.3056   72.0491   -7.1809 C.ar    1  UNL1        0.0795
     20 C          18.5322   72.4774   -6.8141 C.ar    1  UNL1        0.0869
     21 O          20.5026   69.9532   -8.1235 O.2     1  UNL1       -0.2464
     22 O          16.0911   70.4322   -8.2486 O.2     1  UNL1       -0.2670
     23 H          18.2257   69.3103   -8.7100 H       1  UNL1        0.1734
     24 O          22.9487   71.0338   -0.7980 O.3     1  UNL1       -0.2703
     25 P          22.8504   70.9174    0.8041 P.3     1  UNL1        0.2208
     26 O          21.6321   70.1616    1.1697 O.2     1  UNL1       -0.5170
     27 O          24.1482   70.1469    1.3666 O.3     1  UNL1       -0.4371
     28 O          22.7822   72.3911    1.4473 O.3     1  UNL1       -0.2858
     29 C          22.8794   72.2309    2.8631 C.3     1  UNL1        0.2704
     30 C          21.6705   72.8850    3.5337 C.3     1  UNL1        0.1967
     31 C          21.6350   74.3698    3.1586 C.3     1  UNL1        0.1715
     32 C          22.9909   74.9953    3.5051 C.3     1  UNL1        0.1694
     33 C          24.1004   74.1815    2.8344 C.3     1  UNL1        0.1761
     34 O          20.4723   72.2481    3.0866 O.3     1  UNL1       -0.3775
     35 O          20.5992   75.0259    3.8928 O.3     1  UNL1       -0.3794
     36 O          23.1738   74.9851    4.9215 O.3     1  UNL1       -0.3794
     37 O          24.0805   72.8427    3.3275 O.3     1  UNL1       -0.3258
     38 H          20.5413   71.3168    3.3370 H       1  UNL1        0.2106
     39 H          19.7697   74.5936    3.6536 H       1  UNL1        0.2105
     40 H          22.4517   75.5029    5.3007 H       1  UNL1        0.2105
     41 C          25.4568   74.8179    3.1459 C.3     1  UNL1        0.1693
     42 O          25.9744   74.2651    4.3573 O.3     1  UNL1       -0.3794
     43 H          26.8279   74.6910    4.5171 H       1  UNL1        0.2105
@<TRIPOS>BOND
     1    15    16   ar
     2    15    20   ar
     3    15     6    1
     4    16    17   ar
     5    16    21    2
     6    17    18   ar
     7    17    23    1
     8    18    19   ar
     9    18    22    2
    10    19    20   ar
    11     6     7    1
    12     6    11    1
    13     7     8    1
    14     7     9    1
    15     8    13    1
    16     9    10    1
    17     9    12    1
    18    10    11    1
    19    10     5    1
    20    12    14    1
    21     5     4    1
    22     4     1    1
    23     1     2    2
    24     1     3    1
    25     1    24    1
    26    24    25    1
    27    25    26    2
    28    25    27    1
    29    25    28    1
    30    28    29    1
    31    29    30    1
    32    29    37    1
    33    30    31    1
    34    30    34    1
    35    31    32    1
    36    31    35    1
    37    32    33    1
    38    32    36    1
    39    33    41    1
    40    33    37    1
    41    41    42    1
    42    34    38    1
    43    35    39    1
    44    36    40    1
    45    42    43    1
@<TRIPOS>MOLECULE
GDU
 43 45 0 0 0
SMALL
GASTEIGER

@<TRIPOS>ATOM
      1 P          22.9491   73.4580   -4.0993 P.3     1  UNL1        0.2189
      2 O          22.9746   74.2147   -5.3706 O.2     1  UNL1       -0.5170
      3 O          24.2266   72.4801   -4.0311 O.3     1  UNL1       -0.4371
      4 O          22.9927   74.4849   -2.8622 O.3     1  UNL1       -0.3112
      5 C          22.3478   73.8376   -1.7642 C.3     1  UNL1        0.1811
      6 C          23.6690   72.5966    1.3409 C.3     1  UNL1        0.2383
      7 C          22.9134   71.3891    0.7293 C.3     1  UNL1        0.1895
      8 O          23.5259   70.1563    1.1141 O.3     1  UNL1       -0.3779
      9 C          23.0803   71.6384   -0.7923 C.3     1  UNL1        0.1713
     10 C          23.3954   73.1424   -0.8928 C.3     1  UNL1        0.1764
     11 O          23.3571   73.6805    0.4402 O.3     1  UNL1       -0.3308
     12 O          24.1595   70.8585   -1.3109 O.3     1  UNL1       -0.3794
     13 H          23.0103   69.4485    0.7030 H       1  UNL1        0.2106
     14 H          23.9296   69.9307   -1.1658 H       1  UNL1        0.2105
     15 N          23.1762   72.8874    2.6883 N.ar    1  UNL1       -0.2551
     16 C          21.9317   72.5168    3.0376 C.ar    1  UNL1        0.3323
     17 N          21.4557   72.7690    4.2711 N.ar    1  UNL1       -0.2743
     18 C          22.2196   73.4094    5.1770 C.ar    1  UNL1        0.2626
     19 C          23.5305   73.8109    4.8212 C.ar    1  UNL1        0.0795
     20 C          23.9845   73.5416    3.5787 C.ar    1  UNL1        0.0869
     21 O          21.2311   71.9379    2.2313 O.2     1  UNL1       -0.2464
     22 O          21.7878   73.6424    6.2923 O.2     1  UNL1       -0.2670
     23 H          20.5566   72.4905    4.5075 H       1  UNL1        0.1734
     24 O          21.6001   72.5822   -4.0241 O.3     1  UNL1       -0.2703
     25 P          20.9884   72.5389   -5.5121 P.3     1  UNL1        0.2208
     26 O          20.5177   73.8893   -5.8912 O.2     1  UNL1       -0.5170
     27 O          22.1260   72.0577   -6.5458 O.3     1  UNL1       -0.4371
     28 O          19.7540   71.5072   -5.5562 O.3     1  UNL1       -0.2858
     29 C          18.6726   72.1815   -6.2009 C.3     1  UNL1        0.2704
     30 C          17.3450   71.6407   -5.6676 C.3     1  UNL1        0.1967
     31 C          17.2779   70.1336   -5.9330 C.3     1  UNL1        0.1715
     32 C          17.5306   69.8869   -7.4246 C.3     1  UNL1        0.1694
     33 C          18.8461   70.5596   -7.8244 C.3     1  UNL1        0.1761
     34 O          17.2585   71.8851   -4.2626 O.3     1  UNL1       -0.3775
     35 O          15.9854   69.6400   -5.5744 O.3     1  UNL1       -0.3794
     36 O          16.4560   70.4362   -8.1885 O.3     1  UNL1       -0.3794
     37 O          18.7524   71.9668   -7.6081 O.3     1  UNL1       -0.3258
     38 H          17.3120   72.8430   -4.1423 H       1  UNL1        0.2106
     39 H          15.8653   69.8267   -4.6348 H       1  UNL1        0.2105
     40 H          15.6500   69.9886   -7.8998 H       1  UNL1        0.2105
     41 C          19.1253   70.2903   -9.3048 C.3     1  UNL1        0.1693
     42 O          18.3478   71.1824  -10.1052 O.3     1  UNL1       -0.3794
     43 H          18.5529   70.9809  -11.0286 H       1  UNL1        0.2105
@<TRIPOS>BOND
     1    15    16   ar
     2    15    20   ar
     3    15     6    1
     4    16    17   ar
     5    16    21    2
     6    17    18   ar
     7    17    23    1
     8    18    19   ar
     9    18    22    2
    10    19    20   ar
    11     6     7    1
    12     6    11    1
    13     7     8    1
    14     7     9    1
    15     8    13    1
    16     9    10    1
    17     9    12    1
    18    10    11    1
    19    10     5    1
    20    12    14    1
    21     5     4    1
    22     4     1    1
    23     1     2    2
    24     1     3    1
    25     1    24    1
    26    24    25    1
    27    25    26    2
    28    25    27    1
    29    25    28    1
    30    28    29    1
    31    29    30    1
    32    29    37    1
    33    30    31    1
    34    30    34    1
    35    31    32    1
    36    31    35    1
    37    32    33    1
    38    32    36    1
    39    33    41    1
    40    33    37    1
    41    41    42    1
    42    34    38    1
    43    35    39    1
    44    36    40    1
    45    42    43    1
