@<TRIPOS>MOLECULE
UD1
 46 48 0 0 0
SMALL
GASTEIGER

@<TRIPOS>ATOM
      1 P          22.4052   72.1185   -3.0062 P.3     1  UNL1        0.2189
      2 O          23.1612   73.3558   -2.7127 O.2     1  UNL1       -0.5170
      3 O          22.9144   70.9361   -2.0391 O.3     1  UNL1       -0.4371
      4 O          22.6446   71.6954   -4.5413 O.3     1  UNL1       -0.3112
      5 C          22.7371   72.9056   -5.2945 C.3     1  UNL1        0.1811
      6 C          19.6600   71.9702   -6.9020 C.3     1  UNL1        0.2383
      7 C          19.3801   73.3769   -6.3164 C.3     1  UNL1        0.1895
      8 O          18.4371   74.0868   -7.1201 O.3     1  UNL1       -0.3779
      9 C          20.7789   74.0430   -6.3861 C.3     1  UNL1        0.1713
     10 C          21.7560   72.8542   -6.4667 C.3     1  UNL1        0.1764
     11 O          20.9738   71.6497   -6.3972 O.3     1  UNL1       -0.3308
     12 O          20.8840   74.8652   -7.5505 O.3     1  UNL1       -0.3794
     13 H          18.3069   74.9497   -6.7031 H       1  UNL1        0.2106
     14 H          20.2095   75.5525   -7.4688 H       1  UNL1        0.2105
     15 N          18.6727   71.0022   -6.4228 N.ar    1  UNL1       -0.2551
     16 C          17.7291   70.5418   -7.2624 C.ar    1  UNL1        0.3323
     17 N          16.8107   69.6480   -6.8500 N.ar    1  UNL1       -0.2743
     18 C          16.8179   69.2048   -5.5766 C.ar    1  UNL1        0.2626
     19 C          17.8020   69.6858   -4.6806 C.ar    1  UNL1        0.0795
     20 C          18.7145   70.5779   -5.1220 C.ar    1  UNL1        0.0869
     21 O          17.7097   70.9320   -8.4139 O.2     1  UNL1       -0.2464
     22 O          15.9851   68.4004   -5.2014 O.2     1  UNL1       -0.2670
     23 H          16.1402   69.3230   -7.4705 H       1  UNL1        0.1734
     24 O          20.8363   72.3769   -2.7594 O.3     1  UNL1       -0.2703
     25 P          20.5446   72.0263   -1.2162 P.3     1  UNL1        0.2208
     26 O          20.4401   70.5593   -1.0550 O.2     1  UNL1       -0.5170
     27 O          19.1626   72.7153   -0.7606 O.3     1  UNL1       -0.4371
     28 O          21.7468   72.5822   -0.3018 O.3     1  UNL1       -0.2865
     29 C          21.5480   72.0535    1.0105 C.3     1  UNL1        0.2611
     30 C          21.5119   73.2037    2.0183 C.3     1  UNL1        0.1582
     31 C          22.8320   73.9789    1.9416 C.3     1  UNL1        0.1625
     32 C          23.9909   72.9922    2.1194 C.3     1  UNL1        0.1686
     33 C          23.8415   71.8594    1.1017 C.3     1  UNL1        0.1760
     34 O          22.8716   74.9610    2.9785 O.3     1  UNL1       -0.3801
     35 O          25.2313   73.6683    1.9054 O.3     1  UNL1       -0.3794
     36 O          22.6162   71.1646    1.3301 O.3     1  UNL1       -0.3263
     37 H          23.7164   75.4239    2.8928 H       1  UNL1        0.2105
     38 H          25.9321   73.0120    2.0260 H       1  UNL1        0.2105
     39 C          19.4079   74.2884    2.5936 C.2     1  UNL1        0.2231
     40 C          18.2611   75.2099    2.2653 C.3     1  UNL1        0.0946
     41 N          20.3979   74.0992    1.7000 N.am    1  UNL1       -0.2994
     42 O          19.4392   73.7164    3.6623 O.2     1  UNL1       -0.2751
     43 H          20.3730   74.5567    0.8447 H       1  UNL1        0.1496
     44 C          25.0122   70.8853    1.2493 C.3     1  UNL1        0.1693
     45 O          24.8096   70.0680    2.4039 O.3     1  UNL1       -0.3794
     46 H          25.5675   69.4705    2.4603 H       1  UNL1        0.2105
@<TRIPOS>BOND
     1    29    30    1
     2    29    28    1
     3    29    36    1
     4    30    31    1
     5    30    41    1
     6    31    32    1
     7    31    34    1
     8    32    33    1
     9    32    35    1
    10    33    44    1
    11    33    36    1
    12    44    45    1
    13    39    40    1
    14    39    41   am
    15    39    42    2
    16    41    43    1
    17    28    25    1
    18    34    37    1
    19    35    38    1
    20    45    46    1
    21    15    16   ar
    22    15    20   ar
    23    15     6    1
    24    16    17   ar
    25    16    21    2
    26    17    18   ar
    27    17    23    1
    28    18    19   ar
    29    18    22    2
    30    19    20   ar
    31     6     7    1
    32     6    11    1
    33     7     8    1
    34     7     9    1
    35     8    13    1
    36     9    10    1
    37     9    12    1
    38    10    11    1
    39    10     5    1
    40    12    14    1
    41     5     4    1
    42     4     1    1
    43     1     2    2
    44     1     3    1
    45     1    24    1
    46    24    25    1
    47    25    26    2
    48    25    27    1
@<TRIPOS>MOLECULE
UD1
 46 48 0 0 0
SMALL
GASTEIGER

@<TRIPOS>ATOM
      1 P          20.9508   71.3394   -2.0278 P.3     1  UNL1        0.2189
      2 O          20.8373   72.8145   -2.0219 O.2     1  UNL1       -0.5170
      3 O          22.4591   70.9186   -2.4024 O.3     1  UNL1       -0.4371
      4 O          19.9373   70.7282   -3.1197 O.3     1  UNL1       -0.3112
      5 C          18.7526   70.3483   -2.4178 C.3     1  UNL1        0.1811
      6 C          17.0891   70.4485   -5.6037 C.3     1  UNL1        0.2383
      7 C          16.9181   68.9859   -5.1223 C.3     1  UNL1        0.1895
      8 O          15.6986   68.4263   -5.6111 O.3     1  UNL1       -0.3779
      9 C          16.8714   69.1537   -3.5813 C.3     1  UNL1        0.1713
     10 C          17.5393   70.5199   -3.3330 C.3     1  UNL1        0.1764
     11 O          17.9583   71.0316   -4.6097 O.3     1  UNL1       -0.3308
     12 O          15.5188   69.1594   -3.1193 O.3     1  UNL1       -0.3794
     13 H          15.6532   67.5194   -5.2779 H       1  UNL1        0.2106
     14 H          15.1391   68.3029   -3.3565 H       1  UNL1        0.2105
     15 N          17.7156   70.4904   -6.9255 N.ar    1  UNL1       -0.2551
     16 C          16.9472   70.4609   -8.0283 C.ar    1  UNL1        0.3323
     17 N          17.4960   70.5021   -9.2568 N.ar    1  UNL1       -0.2743
     18 C          18.8351   70.5647   -9.4011 C.ar    1  UNL1        0.2626
     19 C          19.6562   70.5904   -8.2486 C.ar    1  UNL1        0.0795
     20 C          19.0792   70.5534   -7.0284 C.ar    1  UNL1        0.0869
     21 O          15.7379   70.4045   -7.9145 O.2     1  UNL1       -0.2464
     22 O          19.3326   70.5972  -10.5114 O.2     1  UNL1       -0.2670
     23 H          16.9264   70.4847  -10.0413 H       1  UNL1        0.1734
     24 O          20.5789   70.7666   -0.5709 O.3     1  UNL1       -0.2703
     25 P          21.7293   71.2715    0.4346 P.3     1  UNL1        0.2208
     26 O          22.6682   72.1533   -0.2932 O.2     1  UNL1       -0.5170
     27 O          22.5292   70.0014    1.0170 O.3     1  UNL1       -0.4371
     28 O          21.0609   72.0867    1.6508 O.3     1  UNL1       -0.2865
     29 C          21.7505   73.3346    1.7418 C.3     1  UNL1        0.2611
     30 C          22.6514   73.3248    2.9780 C.3     1  UNL1        0.1582
     31 C          21.7901   73.0904    4.2241 C.3     1  UNL1        0.1625
     32 C          20.6653   74.1309    4.2452 C.3     1  UNL1        0.1686
     33 C          19.9122   74.0777    2.9143 C.3     1  UNL1        0.1760
     34 O          22.5959   73.2277    5.3960 O.3     1  UNL1       -0.3801
     35 O          19.7659   73.8406    5.3169 O.3     1  UNL1       -0.3794
     36 O          20.8015   74.3940    1.8441 O.3     1  UNL1       -0.3263
     37 H          22.0156   73.0723    6.1539 H       1  UNL1        0.2105
     38 H          19.0747   74.5176    5.2931 H       1  UNL1        0.2105
     39 C          24.9108   72.5396    2.5165 C.2     1  UNL1        0.2231
     40 C          25.9275   71.4339    2.3901 C.3     1  UNL1        0.0946
     41 N          23.6396   72.2511    2.8556 N.am    1  UNL1       -0.2994
     42 O          25.2370   73.6895    2.3122 O.2     1  UNL1       -0.2751
     43 H          23.3782   71.3310    3.0189 H       1  UNL1        0.1496
     44 C          18.7658   75.0908    2.9376 C.3     1  UNL1        0.1693
     45 O          17.8616   74.8124    1.8666 O.3     1  UNL1       -0.3794
     46 H          17.1565   75.4719    1.9171 H       1  UNL1        0.2105
@<TRIPOS>BOND
     1    29    30    1
     2    29    28    1
     3    29    36    1
     4    30    31    1
     5    30    41    1
     6    31    32    1
     7    31    34    1
     8    32    33    1
     9    32    35    1
    10    33    44    1
    11    33    36    1
    12    44    45    1
    13    39    40    1
    14    39    41   am
    15    39    42    2
    16    41    43    1
    17    28    25    1
    18    34    37    1
    19    35    38    1
    20    45    46    1
    21    15    16   ar
    22    15    20   ar
    23    15     6    1
    24    16    17   ar
    25    16    21    2
    26    17    18   ar
    27    17    23    1
    28    18    19   ar
    29    18    22    2
    30    19    20   ar
    31     6     7    1
    32     6    11    1
    33     7     8    1
    34     7     9    1
    35     8    13    1
    36     9    10    1
    37     9    12    1
    38    10    11    1
    39    10     5    1
    40    12    14    1
    41     5     4    1
    42     4     1    1
    43     1     2    2
    44     1     3    1
    45     1    24    1
    46    24    25    1
    47    25    26    2
    48    25    27    1
@<TRIPOS>MOLECULE
UD1
 46 48 0 0 0
SMALL
GASTEIGER

@<TRIPOS>ATOM
      1 P          20.0307   72.6575   -1.8419 P.3     1  UNL1        0.2189
      2 O          19.0000   73.7086   -1.9882 O.2     1  UNL1       -0.5170
      3 O          21.4908   73.3059   -2.0428 O.3     1  UNL1       -0.4371
      4 O          19.7940   71.5161   -2.9528 O.3     1  UNL1       -0.3112
      5 C          18.7836   70.6449   -2.4423 C.3     1  UNL1        0.1811
      6 C          17.0810   70.5030   -5.6058 C.3     1  UNL1        0.2383
      7 C          16.9991   69.0570   -5.0557 C.3     1  UNL1        0.1895
      8 O          15.8081   68.4073   -5.5013 O.3     1  UNL1       -0.3779
      9 C          16.9605   69.2932   -3.5235 C.3     1  UNL1        0.1713
     10 C          17.5521   70.7051   -3.3473 C.3     1  UNL1        0.1764
     11 O          17.9267   71.1798   -4.6517 O.3     1  UNL1       -0.3308
     12 O          15.6151   69.2440   -3.0434 O.3     1  UNL1       -0.3794
     13 H          15.8183   67.5157   -5.1264 H       1  UNL1        0.2106
     14 H          15.2822   68.3573   -3.2358 H       1  UNL1        0.2105
     15 N          17.6889   70.5187   -6.9368 N.ar    1  UNL1       -0.2551
     16 C          16.9056   70.4609   -8.0279 C.ar    1  UNL1        0.3323
     17 N          17.4372   70.4776   -9.2645 N.ar    1  UNL1       -0.2743
     18 C          18.7738   70.5439   -9.4287 C.ar    1  UNL1        0.2626
     19 C          19.6105   70.5993   -8.2886 C.ar    1  UNL1        0.0795
     20 C          19.0506   70.5864   -7.0600 C.ar    1  UNL1        0.0869
     21 O          15.6983   70.4008   -7.8961 O.2     1  UNL1       -0.2464
     22 O          19.2558   70.5543  -10.5463 O.2     1  UNL1       -0.2670
     23 H          16.8569   70.4400  -10.0404 H       1  UNL1        0.1734
     24 O          19.9289   72.0066   -0.3739 O.3     1  UNL1       -0.2703
     25 P          21.4088   71.5118    0.0189 P.3     1  UNL1        0.2208
     26 O          22.2132   71.3380   -1.2106 O.2     1  UNL1       -0.5170
     27 O          21.3159   70.1078    0.8015 O.3     1  UNL1       -0.4371
     28 O          22.1085   72.6079    0.9673 O.3     1  UNL1       -0.2865
     29 C          21.9909   72.1307    2.3088 C.3     1  UNL1        0.2611
     30 C          21.8237   73.3208    3.2553 C.3     1  UNL1        0.1582
     31 C          23.0368   74.2472    3.1148 C.3     1  UNL1        0.1625
     32 C          24.3108   73.4217    3.3240 C.3     1  UNL1        0.1686
     33 C          24.2917   72.2256    2.3700 C.3     1  UNL1        0.1760
     34 O          22.9657   75.2816    4.0979 O.3     1  UNL1       -0.3801
     35 O          25.4556   74.2327    3.0531 O.3     1  UNL1       -0.3794
     36 O          23.1644   71.3987    2.6560 O.3     1  UNL1       -0.3263
     37 H          23.7458   75.8396    3.9733 H       1  UNL1        0.2105
     38 H          26.2335   73.6750    3.1958 H       1  UNL1        0.2105
     39 C          19.7926   74.5100    3.8835 C.2     1  UNL1        0.2231
     40 C          18.5369   75.2641    3.5274 C.3     1  UNL1        0.0946
     41 N          20.6040   74.0538    2.9100 N.am    1  UNL1       -0.2994
     42 O          20.0723   74.3131    5.0468 O.2     1  UNL1       -0.2751
     43 H          20.3803   74.2111    1.9789 H       1  UNL1        0.1496
     44 C          25.5755   71.4123    2.5481 C.3     1  UNL1        0.1693
     45 O          25.2539   70.0213    2.6100 O.3     1  UNL1       -0.3794
     46 H          26.0882   69.5460    2.7225 H       1  UNL1        0.2105
@<TRIPOS>BOND
     1    29    30    1
     2    29    28    1
     3    29    36    1
     4    30    31    1
     5    30    41    1
     6    31    32    1
     7    31    34    1
     8    32    33    1
     9    32    35    1
    10    33    44    1
    11    33    36    1
    12    44    45    1
    13    39    40    1
    14    39    41   am
    15    39    42    2
    16    41    43    1
    17    28    25    1
    18    34    37    1
    19    35    38    1
    20    45    46    1
    21    15    16   ar
    22    15    20   ar
    23    15     6    1
    24    16    17   ar
    25    16    21    2
    26    17    18   ar
    27    17    23    1
    28    18    19   ar
    29    18    22    2
    30    19    20   ar
    31     6     7    1
    32     6    11    1
    33     7     8    1
    34     7     9    1
    35     8    13    1
    36     9    10    1
    37     9    12    1
    38    10    11    1
    39    10     5    1
    40    12    14    1
    41     5     4    1
    42     4     1    1
    43     1     2    2
    44     1     3    1
    45     1    24    1
    46    24    25    1
    47    25    26    2
    48    25    27    1
@<TRIPOS>MOLECULE
UD1
 46 48 0 0 0
SMALL
GASTEIGER

@<TRIPOS>ATOM
      1 P          20.9683   71.5167   -1.3489 P.3     1  UNL1        0.2189
      2 O          22.1487   70.8703   -1.9635 O.2     1  UNL1       -0.5170
      3 O          20.4213   70.6000   -0.1434 O.3     1  UNL1       -0.4371
      4 O          19.8133   71.6887   -2.4576 O.3     1  UNL1       -0.3112
      5 C          19.1301   70.4370   -2.5412 C.3     1  UNL1        0.1811
      6 C          17.2673   70.4896   -5.6160 C.3     1  UNL1        0.2383
      7 C          17.1152   69.0386   -5.0948 C.3     1  UNL1        0.1895
      8 O          15.8624   68.4810   -5.4933 O.3     1  UNL1       -0.3779
      9 C          17.1685   69.2375   -3.5576 C.3     1  UNL1        0.1713
     10 C          17.8622   70.6020   -3.3806 C.3     1  UNL1        0.1764
     11 O          18.2030   71.0841   -4.6916 O.3     1  UNL1       -0.3308
     12 O          15.8483   69.2655   -3.0107 O.3     1  UNL1       -0.3794
     13 H          15.8308   67.5815   -5.1393 H       1  UNL1        0.2106
     14 H          15.4471   68.4081   -3.2055 H       1  UNL1        0.2105
     15 N          17.8083   70.4991   -6.9757 N.ar    1  UNL1       -0.2551
     16 C          16.9710   70.4498   -8.0263 C.ar    1  UNL1        0.3323
     17 N          17.4404   70.4611   -9.2879 N.ar    1  UNL1       -0.2743
     18 C          18.7679   70.5130   -9.5185 C.ar    1  UNL1        0.2626
     19 C          19.6609   70.5592   -8.4216 C.ar    1  UNL1        0.0795
     20 C          19.1627   70.5521   -7.1665 C.ar    1  UNL1        0.0869
     21 O          15.7711   70.4027   -7.8345 O.2     1  UNL1       -0.2464
     22 O          19.1936   70.5184  -10.6587 O.2     1  UNL1       -0.2670
     23 H          16.8218   70.4298  -10.0339 H       1  UNL1        0.1734
     24 O          21.3842   72.9626   -0.7788 O.3     1  UNL1       -0.2703
     25 P          21.6620   72.7793    0.7955 P.3     1  UNL1        0.2208
     26 O          22.3487   71.4896    1.0282 O.2     1  UNL1       -0.5170
     27 O          20.2636   72.7934    1.5932 O.3     1  UNL1       -0.4371
     28 O          22.5905   73.9840    1.3218 O.3     1  UNL1       -0.2865
     29 C          23.9462   73.5613    1.1654 C.3     1  UNL1        0.2611
     30 C          24.7496   73.9741    2.4000 C.3     1  UNL1        0.1582
     31 C          24.6727   75.4965    2.5620 C.3     1  UNL1        0.1625
     32 C          25.1126   76.1519    1.2486 C.3     1  UNL1        0.1686
     33 C          24.2796   75.5769    0.1012 C.3     1  UNL1        0.1760
     34 O          25.5386   75.9096    3.6208 O.3     1  UNL1       -0.3801
     35 O          24.9094   77.5640    1.3277 O.3     1  UNL1       -0.3794
     36 O          24.5014   74.1707    0.0019 O.3     1  UNL1       -0.3263
     37 H          25.4588   76.8711    3.6878 H       1  UNL1        0.2105
     38 H          25.1978   77.9360    0.4821 H       1  UNL1        0.2105
     39 C          23.2507   73.9539    4.3202 C.2     1  UNL1        0.2231
     40 C          22.6758   73.2860    5.5432 C.3     1  UNL1        0.0946
     41 N          24.1904   73.3255    3.5878 N.am    1  UNL1       -0.2994
     42 O          22.8679   75.0577    3.9957 O.2     1  UNL1       -0.2751
     43 H          24.4971   72.4423    3.8474 H       1  UNL1        0.1496
     44 C          24.6889   76.2488   -1.2111 C.3     1  UNL1        0.1693
     45 O          23.8520   75.7777   -2.2693 O.3     1  UNL1       -0.3794
     46 H          24.1427   76.2242   -3.0759 H       1  UNL1        0.2105
@<TRIPOS>BOND
     1    29    30    1
     2    29    28    1
     3    29    36    1
     4    30    31    1
     5    30    41    1
     6    31    32    1
     7    31    34    1
     8    32    33    1
     9    32    35    1
    10    33    44    1
    11    33    36    1
    12    44    45    1
    13    39    40    1
    14    39    41   am
    15    39    42    2
    16    41    43    1
    17    28    25    1
    18    34    37    1
    19    35    38    1
    20    45    46    1
    21    15    16   ar
    22    15    20   ar
    23    15     6    1
    24    16    17   ar
    25    16    21    2
    26    17    18   ar
    27    17    23    1
    28    18    19   ar
    29    18    22    2
    30    19    20   ar
    31     6     7    1
    32     6    11    1
    33     7     8    1
    34     7     9    1
    35     8    13    1
    36     9    10    1
    37     9    12    1
    38    10    11    1
    39    10     5    1
    40    12    14    1
    41     5     4    1
    42     4     1    1
    43     1     2    2
    44     1     3    1
    45     1    24    1
    46    24    25    1
    47    25    26    2
    48    25    27    1
@<TRIPOS>MOLECULE
UD1
 46 48 0 0 0
SMALL
GASTEIGER

@<TRIPOS>ATOM
      1 P          20.7635   71.2997   -1.0396 P.3     1  UNL1        0.2189
      2 O          20.9509   70.6133    0.2574 O.2     1  UNL1       -0.5170
      3 O          21.1365   72.8580   -0.8810 O.3     1  UNL1       -0.4371
      4 O          19.2274   71.1611   -1.5025 O.3     1  UNL1       -0.3112
      5 C          19.2105   70.2704   -2.6191 C.3     1  UNL1        0.1811
      6 C          17.3250   70.4501   -5.6753 C.3     1  UNL1        0.2383
      7 C          17.1008   69.0045   -5.1653 C.3     1  UNL1        0.1895
      8 O          15.8166   68.5178   -5.5566 O.3     1  UNL1       -0.3779
      9 C          17.1787   69.1861   -3.6271 C.3     1  UNL1        0.1713
     10 C          17.9455   70.5102   -3.4448 C.3     1  UNL1        0.1764
     11 O          18.2994   70.9855   -4.7547 O.3     1  UNL1       -0.3308
     12 O          15.8669   69.2790   -3.0672 O.3     1  UNL1       -0.3794
     13 H          15.7405   67.6180   -5.2102 H       1  UNL1        0.2106
     14 H          15.4190   68.4459   -3.2657 H       1  UNL1        0.2105
     15 N          17.8533   70.4434   -7.0399 N.ar    1  UNL1       -0.2551
     16 C          17.0050   70.4393   -8.0828 C.ar    1  UNL1        0.3323
     17 N          17.4628   70.4370   -9.3488 N.ar    1  UNL1       -0.2743
     18 C          18.7890   70.4296   -9.5917 C.ar    1  UNL1        0.2626
     19 C          19.6933   70.4278   -8.5030 C.ar    1  UNL1        0.0795
     20 C          19.2070   70.4355   -7.2434 C.ar    1  UNL1        0.0869
     21 O          15.8061   70.4460   -7.8799 O.2     1  UNL1       -0.2464
     22 O          19.2041   70.4227  -10.7358 O.2     1  UNL1       -0.2670
     23 H          16.8366   70.4389  -10.0890 H       1  UNL1        0.1734
     24 O          21.7197   70.6279   -2.1456 O.3     1  UNL1       -0.2703
     25 P          23.0452   71.5365   -2.2277 P.3     1  UNL1        0.2208
     26 O          24.1034   70.8006   -2.9540 O.2     1  UNL1       -0.5170
     27 O          23.5554   71.8785   -0.7394 O.3     1  UNL1       -0.4371
     28 O          22.7120   72.9049   -3.0069 O.3     1  UNL1       -0.2865
     29 C          23.8781   73.2492   -3.7571 C.3     1  UNL1        0.2611
     30 C          24.0544   74.7687   -3.7474 C.3     1  UNL1        0.1582
     31 C          22.8078   75.4218   -4.3548 C.3     1  UNL1        0.1625
     32 C          22.5532   74.8037   -5.7337 C.3     1  UNL1        0.1686
     33 C          22.4871   73.2815   -5.5929 C.3     1  UNL1        0.1760
     34 O          23.0212   76.8282   -4.4888 O.3     1  UNL1       -0.3801
     35 O          21.3152   75.2912   -6.2547 O.3     1  UNL1       -0.3794
     36 O          23.7317   72.7885   -5.0986 O.3     1  UNL1       -0.3263
     37 H          22.2144   77.1978   -4.8733 H       1  UNL1        0.2105
     38 H          21.1940   74.8773   -7.1210 H       1  UNL1        0.2105
     39 C          25.0987   76.2250   -2.0973 C.2     1  UNL1        0.2231
     40 C          25.2789   76.7021   -0.6787 C.3     1  UNL1        0.0946
     41 N          24.2295   75.2328   -2.3696 N.am    1  UNL1       -0.2994
     42 O          25.7370   76.7340   -2.9938 O.2     1  UNL1       -0.2751
     43 H          23.7187   74.8251   -1.6523 H       1  UNL1        0.1496
     44 C          22.2007   72.6562   -6.9597 C.3     1  UNL1        0.1693
     45 O          23.0164   73.2834   -7.9513 O.3     1  UNL1       -0.3794
     46 H          22.8052   72.8615   -8.7952 H       1  UNL1        0.2105
@<TRIPOS>BOND
     1    29    30    1
     2    29    28    1
     3    29    36    1
     4    30    31    1
     5    30    41    1
     6    31    32    1
     7    31    34    1
     8    32    33    1
     9    32    35    1
    10    33    44    1
    11    33    36    1
    12    44    45    1
    13    39    40    1
    14    39    41   am
    15    39    42    2
    16    41    43    1
    17    28    25    1
    18    34    37    1
    19    35    38    1
    20    45    46    1
    21    15    16   ar
    22    15    20   ar
    23    15     6    1
    24    16    17   ar
    25    16    21    2
    26    17    18   ar
    27    17    23    1
    28    18    19   ar
    29    18    22    2
    30    19    20   ar
    31     6     7    1
    32     6    11    1
    33     7     8    1
    34     7     9    1
    35     8    13    1
    36     9    10    1
    37     9    12    1
    38    10    11    1
    39    10     5    1
    40    12    14    1
    41     5     4    1
    42     4     1    1
    43     1     2    2
    44     1     3    1
    45     1    24    1
    46    24    25    1
    47    25    26    2
    48    25    27    1
@<TRIPOS>MOLECULE
UD1
 46 48 0 0 0
SMALL
GASTEIGER

@<TRIPOS>ATOM
      1 P          23.2806   72.0498   -2.9161 P.3     1  UNL1        0.2189
      2 O          24.0545   73.3095   -2.9719 O.2     1  UNL1       -0.5170
      3 O          24.2721   70.8005   -3.1371 O.3     1  UNL1       -0.4371
      4 O          22.1612   72.0566   -4.0735 O.3     1  UNL1       -0.3112
      5 C          22.7146   72.7702   -5.1803 C.3     1  UNL1        0.1811
      6 C          19.6700   71.7976   -6.8271 C.3     1  UNL1        0.2383
      7 C          19.3938   73.2343   -6.3175 C.3     1  UNL1        0.1895
      8 O          18.4833   73.9166   -7.1804 O.3     1  UNL1       -0.3779
      9 C          20.8032   73.8785   -6.3796 C.3     1  UNL1        0.1713
     10 C          21.7654   72.6749   -6.3758 C.3     1  UNL1        0.1764
     11 O          20.9649   71.4852   -6.2708 O.3     1  UNL1       -0.3308
     12 O          20.9518   74.6423   -7.5784 O.3     1  UNL1       -0.3794
     13 H          18.3538   74.8001   -6.8088 H       1  UNL1        0.2106
     14 H          20.2850   75.3412   -7.5487 H       1  UNL1        0.2105
     15 N          18.6565   70.8664   -6.3302 N.ar    1  UNL1       -0.2551
     16 C          17.6378   70.5022   -7.1283 C.ar    1  UNL1        0.3323
     17 N          16.6934   69.6442   -6.6991 N.ar    1  UNL1       -0.2743
     18 C          16.7503   69.1406   -5.4497 C.ar    1  UNL1        0.2626
     19 C          17.8140   69.5202   -4.5968 C.ar    1  UNL1        0.0795
     20 C          18.7507   70.3783   -5.0548 C.ar    1  UNL1        0.0869
     21 O          17.5728   70.9478   -8.2579 O.2     1  UNL1       -0.2464
     22 O          15.8944   68.3685   -5.0589 O.2     1  UNL1       -0.2670
     23 H          15.9683   69.3887   -7.2899 H       1  UNL1        0.1734
     24 O          22.5665   71.9219   -1.4799 O.3     1  UNL1       -0.2703
     25 P          22.5414   73.3981   -0.8401 P.3     1  UNL1        0.2208
     26 O          21.8427   74.3225   -1.7600 O.2     1  UNL1       -0.5170
     27 O          24.0505   73.9098   -0.6101 O.3     1  UNL1       -0.4371
     28 O          21.7684   73.3596    0.5712 O.3     1  UNL1       -0.2865
     29 C          22.4286   74.2903    1.4309 C.3     1  UNL1        0.2611
     30 C          22.8993   73.5657    2.6931 C.3     1  UNL1        0.1582
     31 C          21.6869   72.9453    3.3966 C.3     1  UNL1        0.1625
     32 C          20.6397   74.0403    3.6255 C.3     1  UNL1        0.1686
     33 C          20.3372   74.7272    2.2921 C.3     1  UNL1        0.1760
     34 O          22.0912   72.3949    4.6515 O.3     1  UNL1       -0.3801
     35 O          19.4439   73.4567    4.1462 O.3     1  UNL1       -0.3794
     36 O          21.5237   75.3347    1.7826 O.3     1  UNL1       -0.3263
     37 H          21.2999   72.0161    5.0585 H       1  UNL1        0.2105
     38 H          18.8129   74.1792    4.2745 H       1  UNL1        0.2105
     39 C          25.1214   72.5697    2.7609 C.2     1  UNL1        0.2231
     40 C          26.0970   71.4841    2.3842 C.3     1  UNL1        0.0946
     41 N          23.8473   72.5111    2.3279 N.am    1  UNL1       -0.2994
     42 O          25.4836   73.4967    3.4535 O.2     1  UNL1       -0.2751
     43 H          23.5572   71.7694    1.7735 H       1  UNL1        0.1496
     44 C          19.2682   75.8012    2.5040 C.3     1  UNL1        0.1693
     45 O          19.8340   77.0911    2.2632 O.3     1  UNL1       -0.3794
     46 H          19.1294   77.7371    2.4075 H       1  UNL1        0.2105
@<TRIPOS>BOND
     1    29    30    1
     2    29    28    1
     3    29    36    1
     4    30    31    1
     5    30    41    1
     6    31    32    1
     7    31    34    1
     8    32    33    1
     9    32    35    1
    10    33    44    1
    11    33    36    1
    12    44    45    1
    13    39    40    1
    14    39    41   am
    15    39    42    2
    16    41    43    1
    17    28    25    1
    18    34    37    1
    19    35    38    1
    20    45    46    1
    21    15    16   ar
    22    15    20   ar
    23    15     6    1
    24    16    17   ar
    25    16    21    2
    26    17    18   ar
    27    17    23    1
    28    18    19   ar
    29    18    22    2
    30    19    20   ar
    31     6     7    1
    32     6    11    1
    33     7     8    1
    34     7     9    1
    35     8    13    1
    36     9    10    1
    37     9    12    1
    38    10    11    1
    39    10     5    1
    40    12    14    1
    41     5     4    1
    42     4     1    1
    43     1     2    2
    44     1     3    1
    45     1    24    1
    46    24    25    1
    47    25    26    2
    48    25    27    1
@<TRIPOS>MOLECULE
UD1
 46 48 0 0 0
SMALL
GASTEIGER

@<TRIPOS>ATOM
      1 P          16.6948   69.7715   -2.6733 P.3     1  UNL1        0.2189
      2 O          16.3869   71.1933   -2.9424 O.2     1  UNL1       -0.5170
      3 O          16.2321   68.8753   -3.9284 O.3     1  UNL1       -0.4371
      4 O          15.9062   69.2927   -1.3536 O.3     1  UNL1       -0.3112
      5 C          14.8689   70.2470   -1.1222 C.3     1  UNL1        0.1811
      6 C          12.3440   68.1866    0.3966 C.3     1  UNL1        0.2383
      7 C          11.9495   69.6336    0.7848 C.3     1  UNL1        0.1895
      8 O          10.5336   69.7576    0.9234 O.3     1  UNL1       -0.3779
      9 C          12.4598   70.4480   -0.4324 C.3     1  UNL1        0.1713
     10 C          13.5174   69.5323   -1.0785 C.3     1  UNL1        0.1764
     11 O          13.6157   68.3498   -0.2666 O.3     1  UNL1       -0.3308
     12 O          11.3903   70.7086   -1.3439 O.3     1  UNL1       -0.3794
     13 H          10.3552   70.6770    1.1650 H       1  UNL1        0.2106
     14 H          10.7357   71.2331   -0.8637 H       1  UNL1        0.2105
     15 N          12.4871   67.3497    1.5885 N.ar    1  UNL1       -0.2551
     16 C          11.4687   66.5621    1.9758 C.ar    1  UNL1        0.3323
     17 N          11.5738   65.7790    3.0657 N.ar    1  UNL1       -0.2743
     18 C          12.7072   65.7797    3.7961 C.ar    1  UNL1        0.2626
     19 C          13.7849   66.6085    3.4031 C.ar    1  UNL1        0.0795
     20 C          13.6545   67.3800    2.3026 C.ar    1  UNL1        0.0869
     21 O          10.4402   66.5505    1.3273 O.2     1  UNL1       -0.2464
     22 O          12.8015   65.0757    4.7845 O.2     1  UNL1       -0.2670
     23 H          10.8310   65.2136    3.3278 H       1  UNL1        0.1734
     24 O          18.2781   69.5992   -2.4443 O.3     1  UNL1       -0.2703
     25 P          18.9225   71.0714   -2.5257 P.3     1  UNL1        0.2208
     26 O          20.3526   71.0051   -2.1525 O.2     1  UNL1       -0.5170
     27 O          18.1489   72.0535   -1.5111 O.3     1  UNL1       -0.4371
     28 O          18.7853   71.6364   -4.0265 O.3     1  UNL1       -0.2865
     29 C          19.6613   70.8584   -4.8440 C.3     1  UNL1        0.2611
     30 C          20.5399   71.7943   -5.6759 C.3     1  UNL1        0.1582
     31 C          19.6428   72.6867   -6.5410 C.3     1  UNL1        0.1625
     32 C          18.6950   71.7933   -7.3482 C.3     1  UNL1        0.1686
     33 C          17.9532   70.8594   -6.3896 C.3     1  UNL1        0.1760
     34 O          20.4510   73.4597   -7.4302 O.3     1  UNL1       -0.3801
     35 O          17.7528   72.6069   -8.0497 O.3     1  UNL1       -0.3794
     36 O          18.8895   70.0262   -5.7072 O.3     1  UNL1       -0.3263
     37 H          19.8476   74.0050   -7.9535 H       1  UNL1        0.2105
     38 H          17.1766   72.0057   -8.5428 H       1  UNL1        0.2105
     39 C          22.6385   72.8783   -5.0799 C.2     1  UNL1        0.2231
     40 C          23.4704   73.7367   -4.1616 C.3     1  UNL1        0.0946
     41 N          21.3483   72.6286   -4.7844 N.am    1  UNL1       -0.2994
     42 O          23.1309   72.4115   -6.0848 O.2     1  UNL1       -0.2751
     43 H          20.9541   73.0018   -3.9801 H       1  UNL1        0.1496
     44 C          16.9799   69.9849   -7.1827 C.3     1  UNL1        0.1693
     45 O          15.6730   70.5608   -7.1337 O.3     1  UNL1       -0.3794
     46 H          15.0921   69.9804   -7.6438 H       1  UNL1        0.2105
@<TRIPOS>BOND
     1    29    30    1
     2    29    28    1
     3    29    36    1
     4    30    31    1
     5    30    41    1
     6    31    32    1
     7    31    34    1
     8    32    33    1
     9    32    35    1
    10    33    44    1
    11    33    36    1
    12    44    45    1
    13    39    40    1
    14    39    41   am
    15    39    42    2
    16    41    43    1
    17    28    25    1
    18    34    37    1
    19    35    38    1
    20    45    46    1
    21    15    16   ar
    22    15    20   ar
    23    15     6    1
    24    16    17   ar
    25    16    21    2
    26    17    18   ar
    27    17    23    1
    28    18    19   ar
    29    18    22    2
    30    19    20   ar
    31     6     7    1
    32     6    11    1
    33     7     8    1
    34     7     9    1
    35     8    13    1
    36     9    10    1
    37     9    12    1
    38    10    11    1
    39    10     5    1
    40    12    14    1
    41     5     4    1
    42     4     1    1
    43     1     2    2
    44     1     3    1
    45     1    24    1
    46    24    25    1
    47    25    26    2
    48    25    27    1
@<TRIPOS>MOLECULE
UD1
 46 48 0 0 0
SMALL
GASTEIGER

@<TRIPOS>ATOM
      1 P          23.2712   71.9683   -3.4152 P.3     1  UNL1        0.2189
      2 O          24.1870   70.8382   -3.1451 O.2     1  UNL1       -0.5170
      3 O          23.6944   72.6845   -4.7937 O.3     1  UNL1       -0.4371
      4 O          23.3617   73.0316   -2.2093 O.3     1  UNL1       -0.3112
      5 C          22.3487   72.6760   -1.2670 C.3     1  UNL1        0.1811
      6 C          24.3220   71.7984    1.6075 C.3     1  UNL1        0.2383
      7 C          22.9023   72.0511    2.1738 C.3     1  UNL1        0.1895
      8 O          22.6574   71.2373    3.3214 O.3     1  UNL1       -0.3779
      9 C          21.9981   71.6230    0.9887 C.3     1  UNL1        0.1713
     10 C          22.9267   71.7027   -0.2385 C.3     1  UNL1        0.1764
     11 O          24.2043   72.1772    0.2196 O.3     1  UNL1       -0.3308
     12 O          21.5228   70.2886    1.1786 O.3     1  UNL1       -0.3794
     13 H          21.7618   71.4419    3.6240 H       1  UNL1        0.2106
     14 H          20.9997   70.2915    1.9913 H       1  UNL1        0.2105
     15 N          25.3097   72.6360    2.2891 N.ar    1  UNL1       -0.2551
     16 C          26.4742   72.0987    2.6923 C.ar    1  UNL1        0.3323
     17 N          27.4026   72.8462    3.3180 N.ar    1  UNL1       -0.2743
     18 C          27.1730   74.1526    3.5599 C.ar    1  UNL1        0.2626
     19 C          25.9488   74.7297    3.1461 C.ar    1  UNL1        0.0795
     20 C          25.0373   73.9582    2.5157 C.ar    1  UNL1        0.0869
     21 O          26.6960   70.9219    2.4814 O.2     1  UNL1       -0.2464
     22 O          28.0097   74.8283    4.1298 O.2     1  UNL1       -0.2670
     23 H          28.2391   72.4433    3.5977 H       1  UNL1        0.1734
     24 O          21.7631   71.4202   -3.5350 O.3     1  UNL1       -0.2703
     25 P          21.0863   72.1892   -4.7759 P.3     1  UNL1        0.2208
     26 O          21.6632   71.6860   -6.0419 O.2     1  UNL1       -0.5170
     27 O          21.3698   73.7689   -4.6484 O.3     1  UNL1       -0.4371
     28 O          19.4981   71.9282   -4.7689 O.3     1  UNL1       -0.2865
     29 C          19.3073   70.5274   -4.9752 C.3     1  UNL1        0.2611
     30 C          18.3051   70.3162   -6.1113 C.3     1  UNL1        0.1582
     31 C          16.9805   70.9943   -5.7438 C.3     1  UNL1        0.1625
     32 C          16.5300   70.4791   -4.3727 C.3     1  UNL1        0.1686
     33 C          17.6653   70.6810   -3.3669 C.3     1  UNL1        0.1760
     34 O          15.9921   70.6785   -6.7260 O.3     1  UNL1       -0.3801
     35 O          15.3760   71.2050   -3.9450 O.3     1  UNL1       -0.3794
     36 O          18.8108   69.9352   -3.7768 O.3     1  UNL1       -0.3263
     37 H          15.1775   71.1245   -6.4562 H       1  UNL1        0.2105
     38 H          15.1271   70.8501   -3.0798 H       1  UNL1        0.2105
     39 C          18.6370   70.2840   -8.5244 C.2     1  UNL1        0.2231
     40 C          19.1796   70.8895   -9.7938 C.3     1  UNL1        0.0946
     41 N          18.8316   70.9042   -7.3448 N.am    1  UNL1       -0.2994
     42 O          18.0256   69.2377   -8.5649 O.2     1  UNL1       -0.2751
     43 H          19.3210   71.7414   -7.3120 H       1  UNL1        0.1496
     44 C          17.2137   70.1993   -1.9866 C.3     1  UNL1        0.1693
     45 O          17.3655   68.7808   -1.9035 O.3     1  UNL1       -0.3794
     46 H          17.0705   68.5191   -1.0208 H       1  UNL1        0.2105
@<TRIPOS>BOND
     1    29    30    1
     2    29    28    1
     3    29    36    1
     4    30    31    1
     5    30    41    1
     6    31    32    1
     7    31    34    1
     8    32    33    1
     9    32    35    1
    10    33    44    1
    11    33    36    1
    12    44    45    1
    13    39    40    1
    14    39    41   am
    15    39    42    2
    16    41    43    1
    17    28    25    1
    18    34    37    1
    19    35    38    1
    20    45    46    1
    21    15    16   ar
    22    15    20   ar
    23    15     6    1
    24    16    17   ar
    25    16    21    2
    26    17    18   ar
    27    17    23    1
    28    18    19   ar
    29    18    22    2
    30    19    20   ar
    31     6     7    1
    32     6    11    1
    33     7     8    1
    34     7     9    1
    35     8    13    1
    36     9    10    1
    37     9    12    1
    38    10    11    1
    39    10     5    1
    40    12    14    1
    41     5     4    1
    42     4     1    1
    43     1     2    2
    44     1     3    1
    45     1    24    1
    46    24    25    1
    47    25    26    2
    48    25    27    1
@<TRIPOS>MOLECULE
UD1
 46 48 0 0 0
SMALL
GASTEIGER

@<TRIPOS>ATOM
      1 P          20.9301   70.8949   -3.4924 P.3     1  UNL1        0.2189
      2 O          21.8770   71.5668   -4.4093 O.2     1  UNL1       -0.5170
      3 O          20.4382   69.5096   -4.1493 O.3     1  UNL1       -0.4371
      4 O          19.6582   71.8499   -3.2411 O.3     1  UNL1       -0.3112
      5 C          18.6544   71.0470   -2.6182 C.3     1  UNL1        0.1811
      6 C          17.0004   70.5780   -5.7760 C.3     1  UNL1        0.2383
      7 C          17.0200   69.1678   -5.1348 C.3     1  UNL1        0.1895
      8 O          15.8852   68.4041   -5.5448 O.3     1  UNL1       -0.3779
      9 C          16.9478   69.4973   -3.6211 C.3     1  UNL1        0.1713
     10 C          17.4314   70.9576   -3.5323 C.3     1  UNL1        0.1764
     11 O          17.7836   71.3752   -4.8623 O.3     1  UNL1       -0.3308
     12 O          15.6048   69.3784   -3.1467 O.3     1  UNL1       -0.3794
     13 H          15.9574   67.5414   -5.1134 H       1  UNL1        0.2106
     14 H          15.3405   68.4590   -3.2838 H       1  UNL1        0.2105
     15 N          17.6196   70.5546   -7.1017 N.ar    1  UNL1       -0.2551
     16 C          16.8452   70.4688   -8.1973 C.ar    1  UNL1        0.3323
     17 N          17.3872   70.4493   -9.4294 N.ar    1  UNL1       -0.2743
     18 C          18.7254   70.5065   -9.5840 C.ar    1  UNL1        0.2626
     19 C          19.5527   70.5910   -8.4389 C.ar    1  UNL1        0.0795
     20 C          18.9824   70.6142   -7.2151 C.ar    1  UNL1        0.0869
     21 O          15.6366   70.4166   -8.0741 O.2     1  UNL1       -0.2464
     22 O          19.2168   70.4841  -10.6973 O.2     1  UNL1       -0.2670
     23 H          16.8133   70.3919  -10.2088 H       1  UNL1        0.1734
     24 O          21.6612   70.5955   -2.0907 O.3     1  UNL1       -0.2703
     25 P          22.8751   71.6444   -1.9663 P.3     1  UNL1        0.2208
     26 O          22.5139   72.9012   -2.6583 O.2     1  UNL1       -0.5170
     27 O          24.1960   71.0205   -2.6432 O.3     1  UNL1       -0.4371
     28 O          23.1639   71.9511   -0.4129 O.3     1  UNL1       -0.2865
     29 C          22.4703   70.9560    0.3420 C.3     1  UNL1        0.2611
     30 C          21.4006   71.6297    1.2033 C.3     1  UNL1        0.1582
     31 C          22.0730   72.6445    2.1348 C.3     1  UNL1        0.1625
     32 C          23.1847   71.9334    2.9136 C.3     1  UNL1        0.1686
     33 C          24.1217   71.2392    1.9230 C.3     1  UNL1        0.1760
     34 O          21.1070   73.1714    3.0461 O.3     1  UNL1       -0.3801
     35 O          23.9198   72.8905    3.6786 O.3     1  UNL1       -0.3794
     36 O          23.3963   70.2631    1.1762 O.3     1  UNL1       -0.3263
     37 H          21.5718   73.8038    3.6112 H       1  UNL1        0.2105
     38 H          24.6082   72.4015    4.1513 H       1  UNL1        0.2105
     39 C          20.5719   73.6368    0.0992 C.2     1  UNL1        0.2231
     40 C          19.5812   74.3453   -0.7890 C.3     1  UNL1        0.0946
     41 N          20.4388   72.3183    0.3401 N.am    1  UNL1       -0.2994
     42 O          21.4889   74.2540    0.5976 O.2     1  UNL1       -0.2751
     43 H          19.7049   71.8242   -0.0585 H       1  UNL1        0.1496
     44 C          25.2542   70.5528    2.6893 C.3     1  UNL1        0.1693
     45 O          26.5128   70.9848    2.1682 O.3     1  UNL1       -0.3794
     46 H          27.1974   70.5298    2.6770 H       1  UNL1        0.2105
@<TRIPOS>BOND
     1    29    30    1
     2    29    28    1
     3    29    36    1
     4    30    31    1
     5    30    41    1
     6    31    32    1
     7    31    34    1
     8    32    33    1
     9    32    35    1
    10    33    44    1
    11    33    36    1
    12    44    45    1
    13    39    40    1
    14    39    41   am
    15    39    42    2
    16    41    43    1
    17    28    25    1
    18    34    37    1
    19    35    38    1
    20    45    46    1
    21    15    16   ar
    22    15    20   ar
    23    15     6    1
    24    16    17   ar
    25    16    21    2
    26    17    18   ar
    27    17    23    1
    28    18    19   ar
    29    18    22    2
    30    19    20   ar
    31     6     7    1
    32     6    11    1
    33     7     8    1
    34     7     9    1
    35     8    13    1
    36     9    10    1
    37     9    12    1
    38    10    11    1
    39    10     5    1
    40    12    14    1
    41     5     4    1
    42     4     1    1
    43     1     2    2
    44     1     3    1
    45     1    24    1
    46    24    25    1
    47    25    26    2
    48    25    27    1
@<TRIPOS>MOLECULE
UD1
 46 48 0 0 0
SMALL
GASTEIGER

@<TRIPOS>ATOM
      1 P          20.5836   71.8504   -1.4697 P.3     1  UNL1        0.2189
      2 O          20.7254   72.9999   -2.3902 O.2     1  UNL1       -0.5170
      3 O          21.5600   70.6606   -1.9425 O.3     1  UNL1       -0.4371
      4 O          19.0592   71.3323   -1.4899 O.3     1  UNL1       -0.3112
      5 C          18.9864   70.2985   -2.4729 C.3     1  UNL1        0.1811
      6 C          17.1908   70.4457   -5.5843 C.3     1  UNL1        0.2383
      7 C          17.0077   68.9858   -5.0992 C.3     1  UNL1        0.1895
      8 O          15.7563   68.4549   -5.5366 O.3     1  UNL1       -0.3779
      9 C          17.0308   69.1497   -3.5572 C.3     1  UNL1        0.1713
     10 C          17.7391   70.5000   -3.3349 C.3     1  UNL1        0.1764
     11 O          18.1145   71.0062   -4.6272 O.3     1  UNL1       -0.3308
     12 O          15.6997   69.1842   -3.0378 O.3     1  UNL1       -0.3794
     13 H          15.7048   67.5483   -5.2037 H       1  UNL1        0.2106
     14 H          15.2911   68.3370   -3.2603 H       1  UNL1        0.2105
     15 N          17.7609   70.4777   -6.9317 N.ar    1  UNL1       -0.2551
     16 C          16.9460   70.4564   -8.0007 C.ar    1  UNL1        0.3323
     17 N          17.4425   70.4889   -9.2516 N.ar    1  UNL1       -0.2743
     18 C          18.7749   70.5343   -9.4527 C.ar    1  UNL1        0.2626
     19 C          19.6445   70.5511   -8.3363 C.ar    1  UNL1        0.0795
     20 C          19.1195   70.5231   -7.0926 C.ar    1  UNL1        0.0869
     21 O          15.7419   70.4156   -7.8355 O.2     1  UNL1       -0.2464
     22 O          19.2251   70.5588  -10.5833 O.2     1  UNL1       -0.2670
     23 H          16.8398   70.4777  -10.0110 H       1  UNL1        0.1734
     24 O          20.9755   72.3065    0.0227 O.3     1  UNL1       -0.2703
     25 P          22.2202   71.3931    0.4762 P.3     1  UNL1        0.2208
     26 O          23.0940   71.1362   -0.6897 O.2     1  UNL1       -0.5170
     27 O          21.6762   69.9934    1.0569 O.3     1  UNL1       -0.4371
     28 O          23.0596   72.1562    1.6180 O.3     1  UNL1       -0.2865
     29 C          22.5744   73.4993    1.6614 C.3     1  UNL1        0.2611
     30 C          23.6641   74.4465    1.1562 C.3     1  UNL1        0.1582
     31 C          24.9096   74.2924    2.0362 C.3     1  UNL1        0.1625
     32 C          24.5025   74.4887    3.5004 C.3     1  UNL1        0.1686
     33 C          23.3513   73.5360    3.8296 C.3     1  UNL1        0.1760
     34 O          25.8796   75.2753    1.6695 O.3     1  UNL1       -0.3801
     35 O          25.6169   74.2051    4.3485 O.3     1  UNL1       -0.3794
     36 O          22.2270   73.8345    3.0031 O.3     1  UNL1       -0.3263
     37 H          26.6443   75.1420    2.2464 H       1  UNL1        0.2105
     38 H          25.3172   74.3400    5.2587 H       1  UNL1        0.2105
     39 C          23.5141   74.8621   -1.2395 C.2     1  UNL1        0.2231
     40 C          23.8583   74.5185   -2.6663 C.3     1  UNL1        0.0946
     41 N          23.9986   74.1134   -0.2300 N.am    1  UNL1       -0.2994
     42 O          22.8001   75.8124   -1.0000 O.2     1  UNL1       -0.2751
     43 H          24.5699   73.3527   -0.4214 H       1  UNL1        0.1496
     44 C          22.9587   73.7011    5.2992 C.3     1  UNL1        0.1693
     45 O          21.9477   72.7478    5.6326 O.3     1  UNL1       -0.3794
     46 H          21.7293   72.8857    6.5642 H       1  UNL1        0.2105
@<TRIPOS>BOND
     1    29    30    1
     2    29    28    1
     3    29    36    1
     4    30    31    1
     5    30    41    1
     6    31    32    1
     7    31    34    1
     8    32    33    1
     9    32    35    1
    10    33    44    1
    11    33    36    1
    12    44    45    1
    13    39    40    1
    14    39    41   am
    15    39    42    2
    16    41    43    1
    17    28    25    1
    18    34    37    1
    19    35    38    1
    20    45    46    1
    21    15    16   ar
    22    15    20   ar
    23    15     6    1
    24    16    17   ar
    25    16    21    2
    26    17    18   ar
    27    17    23    1
    28    18    19   ar
    29    18    22    2
    30    19    20   ar
    31     6     7    1
    32     6    11    1
    33     7     8    1
    34     7     9    1
    35     8    13    1
    36     9    10    1
    37     9    12    1
    38    10    11    1
    39    10     5    1
    40    12    14    1
    41     5     4    1
    42     4     1    1
    43     1     2    2
    44     1     3    1
    45     1    24    1
    46    24    25    1
    47    25    26    2
    48    25    27    1
@<TRIPOS>MOLECULE
UD1
 46 48 0 0 0
SMALL
GASTEIGER

@<TRIPOS>ATOM
      1 P          16.3393   69.6777   -2.6491 P.3     1  UNL1        0.2189
      2 O          15.9483   69.1806   -3.9866 O.2     1  UNL1       -0.5170
      3 O          17.1516   68.5291   -1.8659 O.3     1  UNL1       -0.4371
      4 O          15.0182   70.0641   -1.8135 O.3     1  UNL1       -0.3112
      5 C          14.8478   69.0538   -0.8183 C.3     1  UNL1        0.1811
      6 C          12.0811   67.9939    1.2187 C.3     1  UNL1        0.2383
      7 C          12.3988   69.4280    1.7113 C.3     1  UNL1        0.1895
      8 O          11.2184   70.0805    2.1804 O.3     1  UNL1       -0.3779
      9 C          12.9299   70.1053    0.4212 C.3     1  UNL1        0.1713
     10 C          13.3641   68.9252   -0.4696 C.3     1  UNL1        0.1764
     11 O          13.1405   67.7176    0.2780 O.3     1  UNL1       -0.3308
     12 O          11.8942   70.8618   -0.2095 O.3     1  UNL1       -0.3794
     13 H          11.4836   70.9639    2.4716 H       1  UNL1        0.2106
     14 H          11.6250   71.5448    0.4192 H       1  UNL1        0.2105
     15 N          12.1169   67.0430    2.3304 N.ar    1  UNL1       -0.2551
     16 C          13.2982   66.5724    2.7668 C.ar    1  UNL1        0.3323
     17 N          13.3614   65.6998    3.7900 N.ar    1  UNL1       -0.2743
     18 C          12.2319   65.2745    4.3911 C.ar    1  UNL1        0.2626
     19 C          10.9812   65.7573    3.9378 C.ar    1  UNL1        0.0795
     20 C          10.9470   66.6360    2.9130 C.ar    1  UNL1        0.0869
     21 O          14.3256   66.9466    2.2349 O.2     1  UNL1       -0.2464
     22 O          12.2876   64.4820    5.3131 O.2     1  UNL1       -0.2670
     23 H          14.2224   65.3744    4.0949 H       1  UNL1        0.1734
     24 O          17.2710   70.9794   -2.8117 O.3     1  UNL1       -0.2703
     25 P          18.7727   70.4501   -3.0445 P.3     1  UNL1        0.2208
     26 O          18.7318   69.0835   -3.6100 O.2     1  UNL1       -0.5170
     27 O          19.5576   70.4252   -1.6390 O.3     1  UNL1       -0.4371
     28 O          19.5364   71.4311   -4.0667 O.3     1  UNL1       -0.2865
     29 C          20.6404   70.6969   -4.5990 C.3     1  UNL1        0.2611
     30 C          21.9151   71.5314   -4.4615 C.3     1  UNL1        0.1582
     31 C          21.7318   72.8542   -5.2139 C.3     1  UNL1        0.1625
     32 C          21.3072   72.5446   -6.6533 C.3     1  UNL1        0.1686
     33 C          20.0763   71.6361   -6.6253 C.3     1  UNL1        0.1760
     34 O          22.9645   73.5766   -5.2196 O.3     1  UNL1       -0.3801
     35 O          20.9890   73.7622   -7.3301 O.3     1  UNL1       -0.3794
     36 O          20.3984   70.4078   -5.9742 O.3     1  UNL1       -0.3263
     37 H          22.8038   74.3996   -5.7014 H       1  UNL1        0.2105
     38 H          20.7268   73.5217   -8.2300 H       1  UNL1        0.2105
     39 C          23.3348   71.4190   -2.4851 C.2     1  UNL1        0.2231
     40 C          23.5987   71.6991   -1.0277 C.3     1  UNL1        0.0946
     41 N          22.1721   71.8037   -3.0458 N.am    1  UNL1       -0.2994
     42 O          24.1691   70.8465   -3.1532 O.2     1  UNL1       -0.2751
     43 H          21.5042   72.2616   -2.5113 H       1  UNL1        0.1496
     44 C          19.6245   71.3472   -8.0584 C.3     1  UNL1        0.1693
     45 O          20.6938   71.6333   -8.9622 O.3     1  UNL1       -0.3794
     46 H          20.3682   71.4388   -9.8514 H       1  UNL1        0.2105
@<TRIPOS>BOND
     1    29    30    1
     2    29    28    1
     3    29    36    1
     4    30    31    1
     5    30    41    1
     6    31    32    1
     7    31    34    1
     8    32    33    1
     9    32    35    1
    10    33    44    1
    11    33    36    1
    12    44    45    1
    13    39    40    1
    14    39    41   am
    15    39    42    2
    16    41    43    1
    17    28    25    1
    18    34    37    1
    19    35    38    1
    20    45    46    1
    21    15    16   ar
    22    15    20   ar
    23    15     6    1
    24    16    17   ar
    25    16    21    2
    26    17    18   ar
    27    17    23    1
    28    18    19   ar
    29    18    22    2
    30    19    20   ar
    31     6     7    1
    32     6    11    1
    33     7     8    1
    34     7     9    1
    35     8    13    1
    36     9    10    1
    37     9    12    1
    38    10    11    1
    39    10     5    1
    40    12    14    1
    41     5     4    1
    42     4     1    1
    43     1     2    2
    44     1     3    1
    45     1    24    1
    46    24    25    1
    47    25    26    2
    48    25    27    1
@<TRIPOS>MOLECULE
UD1
 46 48 0 0 0
SMALL
GASTEIGER

@<TRIPOS>ATOM
      1 P          22.7888   71.4265   -3.0256 P.3     1  UNL1        0.2189
      2 O          24.1633   70.8797   -3.0515 O.2     1  UNL1       -0.5170
      3 O          22.5577   72.3588   -4.3179 O.3     1  UNL1       -0.4371
      4 O          22.5854   72.3025   -1.6899 O.3     1  UNL1       -0.3112
      5 C          23.6977   72.0232   -0.8384 C.3     1  UNL1        0.1811
      6 C          22.9830   71.9414    2.6843 C.3     1  UNL1        0.2383
      7 C          21.6546   72.3954    2.0292 C.3     1  UNL1        0.1895
      8 O          20.5313   71.9551    2.7931 O.3     1  UNL1       -0.3779
      9 C          21.7062   71.6763    0.6561 C.3     1  UNL1        0.1713
     10 C          23.2019   71.3674    0.4513 C.3     1  UNL1        0.1764
     11 O          23.9107   71.9088    1.5790 O.3     1  UNL1       -0.3308
     12 O          20.9402   70.4703    0.6938 O.3     1  UNL1       -0.3794
     13 H          19.7399   72.2691    2.3341 H       1  UNL1        0.2106
     14 H          20.0275   70.7250    0.8840 H       1  UNL1        0.2105
     15 N          23.4191   72.9046    3.6960 N.ar    1  UNL1       -0.2551
     16 C          24.4402   73.7367    3.4273 C.ar    1  UNL1        0.3323
     17 N          24.8599   74.6355    4.3375 N.ar    1  UNL1       -0.2743
     18 C          24.2640   74.7089    5.5447 C.ar    1  UNL1        0.2626
     19 C          23.1917   73.8348    5.8429 C.ar    1  UNL1        0.0795
     20 C          22.7875   72.9466    4.9097 C.ar    1  UNL1        0.0869
     21 O          24.9878   73.6826    2.3429 O.2     1  UNL1       -0.2464
     22 O          24.6457   75.5179    6.3701 O.2     1  UNL1       -0.2670
     23 H          25.5949   75.2312    4.1250 H       1  UNL1        0.1734
     24 O          21.7292   70.2158   -3.0397 O.3     1  UNL1       -0.2703
     25 P          20.2644   70.8793   -2.9793 P.3     1  UNL1        0.2208
     26 O          20.3928   72.3502   -2.8846 O.2     1  UNL1       -0.5170
     27 O          19.4767   70.3260   -1.6887 O.3     1  UNL1       -0.4371
     28 O          19.4453   70.4968   -4.3109 O.3     1  UNL1       -0.2865
     29 C          18.9111   71.7147   -4.8330 C.3     1  UNL1        0.2611
     30 C          17.4328   71.5137   -5.1710 C.3     1  UNL1        0.1582
     31 C          17.3024   70.3820   -6.1966 C.3     1  UNL1        0.1625
     32 C          18.2076   70.6974   -7.3922 C.3     1  UNL1        0.1686
     33 C          19.6283   70.9569   -6.8868 C.3     1  UNL1        0.1760
     34 O          15.9451   70.2844   -6.6320 O.3     1  UNL1       -0.3801
     35 O          18.2142   69.5878   -8.2923 O.3     1  UNL1       -0.3794
     36 O          19.6297   72.0818   -6.0087 O.3     1  UNL1       -0.3263
     37 H          15.9089   69.5621   -7.2741 H       1  UNL1        0.2105
     38 H          18.7953   69.8279   -9.0280 H       1  UNL1        0.2105
     39 C          16.4585   69.8688   -3.6613 C.2     1  UNL1        0.2231
     40 C          15.6994   69.5069   -2.4103 C.3     1  UNL1        0.0946
     41 N          16.6958   71.1616   -3.9556 N.am    1  UNL1       -0.2994
     42 O          16.8552   68.9960   -4.4036 O.2     1  UNL1       -0.2751
     43 H          16.3782   71.8603   -3.3618 H       1  UNL1        0.1496
     44 C          20.5475   71.2411   -8.0765 C.3     1  UNL1        0.1693
     45 O          21.7246   71.9108   -7.6203 O.3     1  UNL1       -0.3794
     46 H          22.2749   72.0710   -8.3988 H       1  UNL1        0.2105
@<TRIPOS>BOND
     1    29    30    1
     2    29    28    1
     3    29    36    1
     4    30    31    1
     5    30    41    1
     6    31    32    1
     7    31    34    1
     8    32    33    1
     9    32    35    1
    10    33    44    1
    11    33    36    1
    12    44    45    1
    13    39    40    1
    14    39    41   am
    15    39    42    2
    16    41    43    1
    17    28    25    1
    18    34    37    1
    19    35    38    1
    20    45    46    1
    21    15    16   ar
    22    15    20   ar
    23    15     6    1
    24    16    17   ar
    25    16    21    2
    26    17    18   ar
    27    17    23    1
    28    18    19   ar
    29    18    22    2
    30    19    20   ar
    31     6     7    1
    32     6    11    1
    33     7     8    1
    34     7     9    1
    35     8    13    1
    36     9    10    1
    37     9    12    1
    38    10    11    1
    39    10     5    1
    40    12    14    1
    41     5     4    1
    42     4     1    1
    43     1     2    2
    44     1     3    1
    45     1    24    1
    46    24    25    1
    47    25    26    2
    48    25    27    1
@<TRIPOS>MOLECULE
UD1
 46 48 0 0 0
SMALL
GASTEIGER

@<TRIPOS>ATOM
      1 P          23.0550   71.6105   -2.6392 P.3     1  UNL1        0.2189
      2 O          24.1958   70.7911   -3.1038 O.2     1  UNL1       -0.5170
      3 O          22.7555   71.2847   -1.0910 O.3     1  UNL1       -0.4371
      4 O          21.7526   71.2651   -3.5209 O.3     1  UNL1       -0.3112
      5 C          20.8268   70.6100   -2.6526 C.3     1  UNL1        0.1811
      6 C          18.2200   70.7142   -5.1267 C.3     1  UNL1        0.2383
      7 C          18.0864   69.3123   -4.4809 C.3     1  UNL1        0.1895
      8 O          16.7287   68.8701   -4.4957 O.3     1  UNL1       -0.3779
      9 C          18.5670   69.5751   -3.0300 C.3     1  UNL1        0.1713
     10 C          19.3999   70.8669   -3.1396 C.3     1  UNL1        0.1764
     11 O          19.4178   71.2502   -4.5253 O.3     1  UNL1       -0.3308
     12 O          17.4495   69.7651   -2.1594 O.3     1  UNL1       -0.3794
     13 H          16.7142   67.9959   -4.0821 H       1  UNL1        0.2106
     14 H          16.9370   68.9459   -2.1800 H       1  UNL1        0.2105
     15 N          18.3755   70.6049   -6.5777 N.ar    1  UNL1       -0.2551
     16 C          17.2883   70.6295   -7.3680 C.ar    1  UNL1        0.3323
     17 N          17.4017   70.5348   -8.7061 N.ar    1  UNL1       -0.2743
     18 C          18.6159   70.4038   -9.2775 C.ar    1  UNL1        0.2626
     19 C          19.7684   70.3705   -8.4569 C.ar    1  UNL1        0.0795
     20 C          19.6263   70.4728   -7.1180 C.ar    1  UNL1        0.0869
     21 O          16.1863   70.7472   -6.8676 O.2     1  UNL1       -0.2464
     22 O          18.7193   70.3133  -10.4868 O.2     1  UNL1       -0.2670
     23 H          16.6071   70.5591   -9.2612 H       1  UNL1        0.1734
     24 O          23.4138   73.1706   -2.8007 O.3     1  UNL1       -0.2703
     25 P          22.8901   73.9082   -1.4699 P.3     1  UNL1        0.2208
     26 O          21.5925   73.3265   -1.0617 O.2     1  UNL1       -0.5170
     27 O          22.7038   75.4800   -1.7646 O.3     1  UNL1       -0.4371
     28 O          23.9631   73.7090   -0.2869 O.3     1  UNL1       -0.2865
     29 C          23.2952   74.0245    0.9360 C.3     1  UNL1        0.2611
     30 C          24.0496   75.1487    1.6481 C.3     1  UNL1        0.1582
     31 C          25.4881   74.6937    1.9190 C.3     1  UNL1        0.1625
     32 C          25.4467   73.3586    2.6699 C.3     1  UNL1        0.1686
     33 C          24.5893   72.3684    1.8790 C.3     1  UNL1        0.1760
     34 O          26.1585   75.6735    2.7141 O.3     1  UNL1       -0.3801
     35 O          26.7730   72.8441    2.8035 O.3     1  UNL1       -0.3794
     36 O          23.2566   72.8666    1.7673 O.3     1  UNL1       -0.3263
     37 H          27.0574   75.3477    2.8597 H       1  UNL1        0.2105
     38 H          26.7008   72.0048    3.2799 H       1  UNL1        0.2105
     39 C          23.3173   77.4137    1.1309 C.2     1  UNL1        0.2231
     40 C          23.3321   78.6423    0.2576 C.3     1  UNL1        0.0946
     41 N          24.0641   76.3426    0.8004 N.am    1  UNL1       -0.2994
     42 O          22.6323   77.3890    2.1311 O.2     1  UNL1       -0.2751
     43 H          24.6122   76.3620   -0.0001 H       1  UNL1        0.1496
     44 C          24.5681   71.0213    2.6042 C.3     1  UNL1        0.1693
     45 O          24.5511   69.9631    1.6440 O.3     1  UNL1       -0.3794
     46 H          24.5378   69.1342    2.1413 H       1  UNL1        0.2105
@<TRIPOS>BOND
     1    29    30    1
     2    29    28    1
     3    29    36    1
     4    30    31    1
     5    30    41    1
     6    31    32    1
     7    31    34    1
     8    32    33    1
     9    32    35    1
    10    33    44    1
    11    33    36    1
    12    44    45    1
    13    39    40    1
    14    39    41   am
    15    39    42    2
    16    41    43    1
    17    28    25    1
    18    34    37    1
    19    35    38    1
    20    45    46    1
    21    15    16   ar
    22    15    20   ar
    23    15     6    1
    24    16    17   ar
    25    16    21    2
    26    17    18   ar
    27    17    23    1
    28    18    19   ar
    29    18    22    2
    30    19    20   ar
    31     6     7    1
    32     6    11    1
    33     7     8    1
    34     7     9    1
    35     8    13    1
    36     9    10    1
    37     9    12    1
    38    10    11    1
    39    10     5    1
    40    12    14    1
    41     5     4    1
    42     4     1    1
    43     1     2    2
    44     1     3    1
    45     1    24    1
    46    24    25    1
    47    25    26    2
    48    25    27    1
@<TRIPOS>MOLECULE
UD1
 46 48 0 0 0
SMALL
GASTEIGER

@<TRIPOS>ATOM
      1 P          16.0783   69.4707   -2.2913 P.3     1  UNL1        0.2189
      2 O          15.8074   69.3973   -3.7439 O.2     1  UNL1       -0.5170
      3 O          16.9004   68.1647   -1.8320 O.3     1  UNL1       -0.4371
      4 O          14.6840   69.5357   -1.4886 O.3     1  UNL1       -0.3112
      5 C          14.8055   68.6488   -0.3755 C.3     1  UNL1        0.1811
      6 C          11.4106   67.6170    0.2051 C.3     1  UNL1        0.2383
      7 C          12.2670   66.5973    0.9968 C.3     1  UNL1        0.1895
      8 O          11.5671   66.1280    2.1497 O.3     1  UNL1       -0.3779
      9 C          13.4956   67.4512    1.4049 C.3     1  UNL1        0.1713
     10 C          13.4885   68.6208    0.4016 C.3     1  UNL1        0.1764
     11 O          12.3918   68.4045   -0.5026 O.3     1  UNL1       -0.3308
     12 O          13.3493   67.9308    2.7433 O.3     1  UNL1       -0.3794
     13 H          12.1516   65.4996    2.5958 H       1  UNL1        0.2106
     14 H          13.3001   67.1530    3.3149 H       1  UNL1        0.2105
     15 N          10.5236   66.9311   -0.7352 N.ar    1  UNL1       -0.2551
     16 C           9.3577   67.5003   -1.0876 C.ar    1  UNL1        0.3323
     17 N           8.5241   66.8940   -1.9535 N.ar    1  UNL1       -0.2743
     18 C           8.8440   65.6934   -2.4772 C.ar    1  UNL1        0.2626
     19 C          10.0655   65.0801   -2.1102 C.ar    1  UNL1        0.0795
     20 C          10.8855   65.7128   -1.2438 C.ar    1  UNL1        0.0869
     21 O           9.0553   68.5829   -0.6239 O.2     1  UNL1       -0.2464
     22 O           8.0889   65.1421   -3.2564 O.2     1  UNL1       -0.2670
     23 H           7.6894   67.3213   -2.2002 H       1  UNL1        0.1734
     24 O          16.9428   70.7898   -1.9726 O.3     1  UNL1       -0.2703
     25 P          18.3320   70.6392   -2.7706 P.3     1  UNL1        0.2208
     26 O          18.6241   69.2049   -2.9860 O.2     1  UNL1       -0.5170
     27 O          19.5200   71.3049   -1.9118 O.3     1  UNL1       -0.4371
     28 O          18.2184   71.3831   -4.1934 O.3     1  UNL1       -0.2865
     29 C          18.9059   70.5674   -5.1437 C.3     1  UNL1        0.2611
     30 C          19.9510   71.4134   -5.8731 C.3     1  UNL1        0.1582
     31 C          19.2496   72.5838   -6.5716 C.3     1  UNL1        0.1625
     32 C          18.1292   72.0265   -7.4560 C.3     1  UNL1        0.1686
     33 C          17.2196   71.1365   -6.6062 C.3     1  UNL1        0.1760
     34 O          20.1915   73.2944   -7.3774 O.3     1  UNL1       -0.3801
     35 O          17.3691   73.1064   -8.0016 O.3     1  UNL1       -0.3794
     36 O          17.9697   70.0415   -6.0820 O.3     1  UNL1       -0.3263
     37 H          19.7090   74.0201   -7.7968 H       1  UNL1        0.2105
     38 H          16.6759   72.7117   -8.5495 H       1  UNL1        0.2105
     39 C          20.7772   73.1685   -4.3996 C.2     1  UNL1        0.2231
     40 C          21.7791   73.6998   -3.4065 C.3     1  UNL1        0.0946
     41 N          20.9237   71.9298   -4.9080 N.am    1  UNL1       -0.2994
     42 O          19.8392   73.8565   -4.7417 O.2     1  UNL1       -0.2751
     43 H          21.6744   71.3791   -4.6346 H       1  UNL1        0.1496
     44 C          16.0782   70.6007   -7.4730 C.3     1  UNL1        0.1693
     45 O          16.4831   70.5936   -8.8434 O.3     1  UNL1       -0.3794
     46 H          15.7373   70.2503   -9.3538 H       1  UNL1        0.2105
@<TRIPOS>BOND
     1    29    30    1
     2    29    28    1
     3    29    36    1
     4    30    31    1
     5    30    41    1
     6    31    32    1
     7    31    34    1
     8    32    33    1
     9    32    35    1
    10    33    44    1
    11    33    36    1
    12    44    45    1
    13    39    40    1
    14    39    41   am
    15    39    42    2
    16    41    43    1
    17    28    25    1
    18    34    37    1
    19    35    38    1
    20    45    46    1
    21    15    16   ar
    22    15    20   ar
    23    15     6    1
    24    16    17   ar
    25    16    21    2
    26    17    18   ar
    27    17    23    1
    28    18    19   ar
    29    18    22    2
    30    19    20   ar
    31     6     7    1
    32     6    11    1
    33     7     8    1
    34     7     9    1
    35     8    13    1
    36     9    10    1
    37     9    12    1
    38    10    11    1
    39    10     5    1
    40    12    14    1
    41     5     4    1
    42     4     1    1
    43     1     2    2
    44     1     3    1
    45     1    24    1
    46    24    25    1
    47    25    26    2
    48    25    27    1
@<TRIPOS>MOLECULE
UD1
 46 48 0 0 0
SMALL
GASTEIGER

@<TRIPOS>ATOM
      1 P          21.9262   72.4531   -6.3867 P.3     1  UNL1        0.2189
      2 O          20.7183   73.2858   -6.1958 O.2     1  UNL1       -0.5170
      3 O          23.0083   73.2686   -7.2565 O.3     1  UNL1       -0.4371
      4 O          21.5270   71.0991   -7.1614 O.3     1  UNL1       -0.3112
      5 C          20.6112   71.4676   -8.1938 C.3     1  UNL1        0.1811
      6 C          17.5172   70.1203   -6.9529 C.3     1  UNL1        0.2383
      7 C          17.0889   71.1455   -8.0327 C.3     1  UNL1        0.1895
      8 O          15.8697   70.7473   -8.6605 O.3     1  UNL1       -0.3779
      9 C          18.2730   71.0797   -9.0320 C.3     1  UNL1        0.1713
     10 C          19.4315   70.4941   -8.2018 C.3     1  UNL1        0.1764
     11 O          18.9462   70.3031   -6.8619 O.3     1  UNL1       -0.3308
     12 O          17.9535   70.2233  -10.1308 O.3     1  UNL1       -0.3794
     13 H          15.6591   71.4244   -9.3183 H       1  UNL1        0.2106
     14 H          17.1867   70.6110  -10.5732 H       1  UNL1        0.2105
     15 N          16.8762   70.4174   -5.6714 N.ar    1  UNL1       -0.2551
     16 C          16.4282   69.4106   -4.9013 C.ar    1  UNL1        0.3323
     17 N          15.8382   69.6542   -3.7161 N.ar    1  UNL1       -0.2743
     18 C          15.6781   70.9214   -3.2844 C.ar    1  UNL1        0.2626
     19 C          16.1398   71.9911   -4.0879 C.ar    1  UNL1        0.0795
     20 C          16.7328   71.7182   -5.2700 C.ar    1  UNL1        0.0869
     21 O          16.5654   68.2622   -5.2769 O.2     1  UNL1       -0.2464
     22 O          15.1405   71.1430   -2.2152 O.2     1  UNL1       -0.2670
     23 H          15.5253   68.9156   -3.1713 H       1  UNL1        0.1734
     24 O          22.5563   72.0849   -4.9528 O.3     1  UNL1       -0.2703
     25 P          22.8095   73.4763   -4.1851 P.3     1  UNL1        0.2208
     26 O          22.0675   74.5586   -4.8684 O.2     1  UNL1       -0.5170
     27 O          24.3831   73.8166   -4.1944 O.3     1  UNL1       -0.4371
     28 O          22.2977   73.3523   -2.6641 O.3     1  UNL1       -0.2865
     29 C          23.2442   72.5345   -1.9738 C.3     1  UNL1        0.2611
     30 C          22.5152   71.3567   -1.3245 C.3     1  UNL1        0.1582
     31 C          21.4567   71.8951   -0.3554 C.3     1  UNL1        0.1625
     32 C          22.1335   72.8619    0.6220 C.3     1  UNL1        0.1686
     33 C          22.8889   73.9281   -0.1743 C.3     1  UNL1        0.1760
     34 O          20.8725   70.8096    0.3670 O.3     1  UNL1       -0.3801
     35 O          21.1423   73.4869    1.4396 O.3     1  UNL1       -0.3794
     36 O          23.8982   73.3096   -0.9714 O.3     1  UNL1       -0.3263
     37 H          20.2141   71.1927    0.9628 H       1  UNL1        0.2105
     38 H          21.6105   74.0863    2.0380 H       1  UNL1        0.2105
     39 C          20.5646   70.7412   -2.6475 C.2     1  UNL1        0.2231
     40 C          19.8974   69.9106   -3.7140 C.3     1  UNL1        0.0946
     41 N          21.8668   70.5505   -2.3608 N.am    1  UNL1       -0.2994
     42 O          19.9288   71.5809   -2.0469 O.2     1  UNL1       -0.2751
     43 H          22.3757   69.8783   -2.8411 H       1  UNL1        0.1496
     44 C          23.5419   74.9179    0.7927 C.3     1  UNL1        0.1693
     45 O          22.5957   75.9260    1.1541 O.3     1  UNL1       -0.3794
     46 H          23.0463   76.5275    1.7621 H       1  UNL1        0.2105
@<TRIPOS>BOND
     1    29    30    1
     2    29    28    1
     3    29    36    1
     4    30    31    1
     5    30    41    1
     6    31    32    1
     7    31    34    1
     8    32    33    1
     9    32    35    1
    10    33    44    1
    11    33    36    1
    12    44    45    1
    13    39    40    1
    14    39    41   am
    15    39    42    2
    16    41    43    1
    17    28    25    1
    18    34    37    1
    19    35    38    1
    20    45    46    1
    21    15    16   ar
    22    15    20   ar
    23    15     6    1
    24    16    17   ar
    25    16    21    2
    26    17    18   ar
    27    17    23    1
    28    18    19   ar
    29    18    22    2
    30    19    20   ar
    31     6     7    1
    32     6    11    1
    33     7     8    1
    34     7     9    1
    35     8    13    1
    36     9    10    1
    37     9    12    1
    38    10    11    1
    39    10     5    1
    40    12    14    1
    41     5     4    1
    42     4     1    1
    43     1     2    2
    44     1     3    1
    45     1    24    1
    46    24    25    1
    47    25    26    2
    48    25    27    1
@<TRIPOS>MOLECULE
UD1
 46 48 0 0 0
SMALL
GASTEIGER

@<TRIPOS>ATOM
      1 P          21.9316   71.4327   -0.7481 P.3     1  UNL1        0.2189
      2 O          23.3520   71.0641   -0.9363 O.2     1  UNL1       -0.5170
      3 O          21.3162   70.5895    0.4778 O.3     1  UNL1       -0.4371
      4 O          21.1092   71.1016   -2.0922 O.3     1  UNL1       -0.3112
      5 C          21.3763   72.1609   -3.0125 C.3     1  UNL1        0.1811
      6 C          20.4798   71.1497   -6.3443 C.3     1  UNL1        0.2383
      7 C          20.9918   72.6031   -6.5043 C.3     1  UNL1        0.1895
      8 O          21.5956   72.7943   -7.7842 O.3     1  UNL1       -0.3779
      9 C          22.0486   72.7024   -5.3736 C.3     1  UNL1        0.1713
     10 C          21.6590   71.5758   -4.3970 C.3     1  UNL1        0.1764
     11 O          20.4727   70.9497   -4.9148 O.3     1  UNL1       -0.3308
     12 O          23.3617   72.4886   -5.8958 O.3     1  UNL1       -0.3794
     13 H          21.8912   73.7146   -7.8198 H       1  UNL1        0.2106
     14 H          23.5226   73.1889   -6.5422 H       1  UNL1        0.2105
     15 N          19.1296   71.0115   -6.8915 N.ar    1  UNL1       -0.2551
     16 C          18.9344   70.2917   -8.0100 C.ar    1  UNL1        0.3323
     17 N          17.7030   70.1444   -8.5335 N.ar    1  UNL1       -0.2743
     18 C          16.6400   70.7286   -7.9446 C.ar    1  UNL1        0.2626
     19 C          16.8321   71.4941   -6.7698 C.ar    1  UNL1        0.0795
     20 C          18.0772   71.6211   -6.2632 C.ar    1  UNL1        0.0869
     21 O          19.8832   69.7587   -8.5527 O.2     1  UNL1       -0.2464
     22 O          15.5268   70.6000   -8.4196 O.2     1  UNL1       -0.2670
     23 H          17.5799   69.6177   -9.3382 H       1  UNL1        0.1734
     24 O          21.8233   73.0056   -0.4267 O.3     1  UNL1       -0.2703
     25 P          20.4038   73.2359    0.2953 P.3     1  UNL1        0.2208
     26 O          19.4468   72.2023   -0.1573 O.2     1  UNL1       -0.5170
     27 O          19.8375   74.6941   -0.0855 O.3     1  UNL1       -0.4371
     28 O          20.5891   73.1336    1.8909 O.3     1  UNL1       -0.2865
     29 C          21.6638   74.0078    2.2402 C.3     1  UNL1        0.2611
     30 C          22.5321   73.3391    3.3075 C.3     1  UNL1        0.1582
     31 C          21.6674   73.0275    4.5342 C.3     1  UNL1        0.1625
     32 C          20.9644   74.3147    4.9780 C.3     1  UNL1        0.1686
     33 C          20.2117   74.9082    3.7853 C.3     1  UNL1        0.1760
     34 O          22.4951   72.5408    5.5922 O.3     1  UNL1       -0.3801
     35 O          20.0414   74.0177    6.0276 O.3     1  UNL1       -0.3794
     36 O          21.1341   75.2315    2.7455 O.3     1  UNL1       -0.3263
     37 H          21.9118   72.3577    6.3416 H       1  UNL1        0.2105
     38 H          19.6215   74.8535    6.2757 H       1  UNL1        0.2105
     39 C          24.4224   71.9810    2.5888 C.2     1  UNL1        0.2231
     40 C          24.9996   70.7014    2.0395 C.3     1  UNL1        0.0946
     41 N          23.0933   72.0961    2.7743 N.am    1  UNL1       -0.2994
     42 O          25.1547   72.9077    2.8634 O.2     1  UNL1       -0.2751
     43 H          22.5071   71.3548    2.5544 H       1  UNL1        0.1496
     44 C          19.4792   76.1771    4.2262 C.3     1  UNL1        0.1693
     45 O          18.9430   76.8408    3.0799 O.3     1  UNL1       -0.3794
     46 H          18.4912   77.6329    3.4010 H       1  UNL1        0.2105
@<TRIPOS>BOND
     1    29    30    1
     2    29    28    1
     3    29    36    1
     4    30    31    1
     5    30    41    1
     6    31    32    1
     7    31    34    1
     8    32    33    1
     9    32    35    1
    10    33    44    1
    11    33    36    1
    12    44    45    1
    13    39    40    1
    14    39    41   am
    15    39    42    2
    16    41    43    1
    17    28    25    1
    18    34    37    1
    19    35    38    1
    20    45    46    1
    21    15    16   ar
    22    15    20   ar
    23    15     6    1
    24    16    17   ar
    25    16    21    2
    26    17    18   ar
    27    17    23    1
    28    18    19   ar
    29    18    22    2
    30    19    20   ar
    31     6     7    1
    32     6    11    1
    33     7     8    1
    34     7     9    1
    35     8    13    1
    36     9    10    1
    37     9    12    1
    38    10    11    1
    39    10     5    1
    40    12    14    1
    41     5     4    1
    42     4     1    1
    43     1     2    2
    44     1     3    1
    45     1    24    1
    46    24    25    1
    47    25    26    2
    48    25    27    1
@<TRIPOS>MOLECULE
UD1
 46 48 0 0 0
SMALL
GASTEIGER

@<TRIPOS>ATOM
      1 P          15.9420   71.1359   -2.5761 P.3     1  UNL1        0.2189
      2 O          17.0882   71.5917   -1.7593 O.2     1  UNL1       -0.5170
      3 O          14.7270   72.1819   -2.4269 O.3     1  UNL1       -0.4371
      4 O          15.4648   69.6845   -2.0677 O.3     1  UNL1       -0.3112
      5 C          14.6468   69.8977   -0.9162 C.3     1  UNL1        0.1811
      6 C          12.8283   67.5597    1.1219 C.3     1  UNL1        0.2383
      7 C          11.7806   68.6328    0.7333 C.3     1  UNL1        0.1895
      8 O          10.4739   68.0635    0.6462 O.3     1  UNL1       -0.3779
      9 C          12.2810   69.0860   -0.6629 C.3     1  UNL1        0.1713
     10 C          13.7647   68.6704   -0.6818 C.3     1  UNL1        0.1764
     11 O          14.0647   68.0902    0.5990 O.3     1  UNL1       -0.3308
     12 O          11.5543   68.4174   -1.6961 O.3     1  UNL1       -0.3794
     13 H           9.8717   68.7801    0.4026 H       1  UNL1        0.2106
     14 H          10.6271   68.6707   -1.5942 H       1  UNL1        0.2105
     15 N          12.9044   67.4105    2.5756 N.ar    1  UNL1       -0.2551
     16 C          12.6266   68.4599    3.3686 C.ar    1  UNL1        0.3323
     17 N          12.6847   68.3504    4.7090 N.ar    1  UNL1       -0.2743
     18 C          13.0341   67.1803    5.2807 C.ar    1  UNL1        0.2626
     19 C          13.3349   66.0691    4.4576 C.ar    1  UNL1        0.0795
     20 C          13.2636   66.2052    3.1160 C.ar    1  UNL1        0.0869
     21 O          12.3099   69.5219    2.8679 O.2     1  UNL1       -0.2464
     22 O          13.0916   67.0815    6.4924 O.2     1  UNL1       -0.2670
     23 H          12.4764   69.1164    5.2658 H       1  UNL1        0.1734
     24 O          16.3859   71.0443   -4.1199 O.3     1  UNL1       -0.2703
     25 P          17.5914   69.9810   -4.1946 P.3     1  UNL1        0.2208
     26 O          17.0816   68.6932   -4.7148 O.2     1  UNL1       -0.5170
     27 O          18.2045   69.7594   -2.7225 O.3     1  UNL1       -0.4371
     28 O          18.7403   70.5383   -5.1744 O.3     1  UNL1       -0.2865
     29 C          18.5509   71.9509   -5.2739 C.3     1  UNL1        0.2611
     30 C          19.1104   72.4426   -6.6101 C.3     1  UNL1        0.1582
     31 C          20.5998   72.0893   -6.6902 C.3     1  UNL1        0.1625
     32 C          21.3024   72.6426   -5.4459 C.3     1  UNL1        0.1686
     33 C          20.5792   72.1332   -4.1974 C.3     1  UNL1        0.1760
     34 O          21.1678   72.6729   -7.8642 O.3     1  UNL1       -0.3801
     35 O          22.6607   72.1996   -5.4273 O.3     1  UNL1       -0.3794
     36 O          19.2296   72.5969   -4.1991 O.3     1  UNL1       -0.3263
     37 H          22.1028   72.4258   -7.8747 H       1  UNL1        0.2105
     38 H          23.0646   72.5691   -4.6293 H       1  UNL1        0.2105
     39 C          18.9065   70.6965   -8.2965 C.2     1  UNL1        0.2231
     40 C          18.1676   70.0303   -9.4289 C.3     1  UNL1        0.0946
     41 N          18.3927   71.7947   -7.7099 N.am    1  UNL1       -0.2994
     42 O          19.9643   70.2442   -7.9136 O.2     1  UNL1       -0.2751
     43 H          17.5463   72.1571   -8.0162 H       1  UNL1        0.1496
     44 C          21.2929   72.6539   -2.9481 C.3     1  UNL1        0.1693
     45 O          22.4657   71.8733   -2.7087 O.3     1  UNL1       -0.3794
     46 H          22.8842   72.2332   -1.9151 H       1  UNL1        0.2105
@<TRIPOS>BOND
     1    29    30    1
     2    29    28    1
     3    29    36    1
     4    30    31    1
     5    30    41    1
     6    31    32    1
     7    31    34    1
     8    32    33    1
     9    32    35    1
    10    33    44    1
    11    33    36    1
    12    44    45    1
    13    39    40    1
    14    39    41   am
    15    39    42    2
    16    41    43    1
    17    28    25    1
    18    34    37    1
    19    35    38    1
    20    45    46    1
    21    15    16   ar
    22    15    20   ar
    23    15     6    1
    24    16    17   ar
    25    16    21    2
    26    17    18   ar
    27    17    23    1
    28    18    19   ar
    29    18    22    2
    30    19    20   ar
    31     6     7    1
    32     6    11    1
    33     7     8    1
    34     7     9    1
    35     8    13    1
    36     9    10    1
    37     9    12    1
    38    10    11    1
    39    10     5    1
    40    12    14    1
    41     5     4    1
    42     4     1    1
    43     1     2    2
    44     1     3    1
    45     1    24    1
    46    24    25    1
    47    25    26    2
    48    25    27    1
@<TRIPOS>MOLECULE
UD1
 46 48 0 0 0
SMALL
GASTEIGER

@<TRIPOS>ATOM
      1 P          21.3112   71.2605   -2.6417 P.3     1  UNL1        0.2189
      2 O          21.4118   70.1210   -3.5799 O.2     1  UNL1       -0.5170
      3 O          22.2433   70.9831   -1.3585 O.3     1  UNL1       -0.4371
      4 O          19.7821   71.4301   -2.1664 O.3     1  UNL1       -0.3112
      5 C          19.2016   72.4408   -2.9923 C.3     1  UNL1        0.1811
      6 C          17.4458   70.9049   -5.7282 C.3     1  UNL1        0.2383
      7 C          17.8591   69.7208   -4.8187 C.3     1  UNL1        0.1895
      8 O          16.9108   68.6565   -4.9028 O.3     1  UNL1       -0.3779
      9 C          17.8393   70.3697   -3.4103 C.3     1  UNL1        0.1713
     10 C          17.9627   71.8796   -3.6919 C.3     1  UNL1        0.1764
     11 O          18.0891   72.0423   -5.1149 O.3     1  UNL1       -0.3308
     12 O          16.6100   70.0777   -2.7421 O.3     1  UNL1       -0.3794
     13 H          17.2252   67.9542   -4.3167 H       1  UNL1        0.2106
     14 H          16.5642   69.1168   -2.6490 H       1  UNL1        0.2105
     15 N          17.9368   70.7079   -7.0926 N.ar    1  UNL1       -0.2551
     16 C          17.0609   70.5298   -8.0968 C.ar    1  UNL1        0.3323
     17 N          17.4841   70.3502   -9.3620 N.ar    1  UNL1       -0.2743
     18 C          18.8029   70.3370   -9.6420 C.ar    1  UNL1        0.2626
     19 C          19.7361   70.5174   -8.5935 C.ar    1  UNL1        0.0795
     20 C          19.2842   70.7008   -7.3343 C.ar    1  UNL1        0.0869
     21 O          15.8682   70.5392   -7.8602 O.2     1  UNL1       -0.2464
     22 O          19.1868   70.1700  -10.7849 O.2     1  UNL1       -0.2670
     23 H          16.8381   70.2280  -10.0748 H       1  UNL1        0.1734
     24 O          21.7965   72.6064   -3.3779 O.3     1  UNL1       -0.2703
     25 P          23.3871   72.7094   -3.1570 P.3     1  UNL1        0.2208
     26 O          24.0048   71.3863   -3.3951 O.2     1  UNL1       -0.5170
     27 O          23.6906   73.1786   -1.6471 O.3     1  UNL1       -0.4371
     28 O          24.0046   73.7826   -4.1853 O.3     1  UNL1       -0.2865
     29 C          23.7398   75.0772   -3.6420 C.3     1  UNL1        0.2611
     30 C          23.1316   75.9661   -4.7283 C.3     1  UNL1        0.1582
     31 C          24.1110   76.0625   -5.9035 C.3     1  UNL1        0.1625
     32 C          25.4721   76.5226   -5.3708 C.3     1  UNL1        0.1686
     33 C          25.9051   75.5897   -4.2379 C.3     1  UNL1        0.1760
     34 O          23.6223   77.0070   -6.8578 O.3     1  UNL1       -0.3801
     35 O          26.4371   76.4783   -6.4236 O.3     1  UNL1       -0.3794
     36 O          24.9574   75.6523   -3.1729 O.3     1  UNL1       -0.3263
     37 H          24.2671   77.0355   -7.5780 H       1  UNL1        0.2105
     38 H          27.2773   76.7742   -6.0455 H       1  UNL1        0.2105
     39 C          21.8529   74.5712   -6.2624 C.2     1  UNL1        0.2231
     40 C          20.5531   73.9722   -6.7357 C.3     1  UNL1        0.0946
     41 N          21.8693   75.3835   -5.1881 N.am    1  UNL1       -0.2994
     42 O          22.8844   74.3225   -6.8493 O.2     1  UNL1       -0.2751
     43 H          21.0439   75.5829   -4.7184 H       1  UNL1        0.1496
     44 C          27.2789   76.0213   -3.7205 C.3     1  UNL1        0.1693
     45 O          28.2996   75.4237   -4.5224 O.3     1  UNL1       -0.3794
     46 H          29.1469   75.7203   -4.1635 H       1  UNL1        0.2105
@<TRIPOS>BOND
     1    29    30    1
     2    29    28    1
     3    29    36    1
     4    30    31    1
     5    30    41    1
     6    31    32    1
     7    31    34    1
     8    32    33    1
     9    32    35    1
    10    33    44    1
    11    33    36    1
    12    44    45    1
    13    39    40    1
    14    39    41   am
    15    39    42    2
    16    41    43    1
    17    28    25    1
    18    34    37    1
    19    35    38    1
    20    45    46    1
    21    15    16   ar
    22    15    20   ar
    23    15     6    1
    24    16    17   ar
    25    16    21    2
    26    17    18   ar
    27    17    23    1
    28    18    19   ar
    29    18    22    2
    30    19    20   ar
    31     6     7    1
    32     6    11    1
    33     7     8    1
    34     7     9    1
    35     8    13    1
    36     9    10    1
    37     9    12    1
    38    10    11    1
    39    10     5    1
    40    12    14    1
    41     5     4    1
    42     4     1    1
    43     1     2    2
    44     1     3    1
    45     1    24    1
    46    24    25    1
    47    25    26    2
    48    25    27    1
@<TRIPOS>MOLECULE
UD1
 46 48 0 0 0
SMALL
GASTEIGER

@<TRIPOS>ATOM
      1 P          21.4738   71.6938   -1.4786 P.3     1  UNL1        0.2189
      2 O          20.5578   70.6037   -1.0769 O.2     1  UNL1       -0.5170
      3 O          22.8652   71.0649   -1.9896 O.3     1  UNL1       -0.4371
      4 O          21.7515   72.6534   -0.2157 O.3     1  UNL1       -0.3112
      5 C          20.7062   72.4098    0.7269 C.3     1  UNL1        0.1811
      6 C          23.3015   72.7149    3.1964 C.3     1  UNL1        0.2383
      7 C          23.0115   74.1717    2.7561 C.3     1  UNL1        0.1895
      8 O          23.2438   75.0856    3.8284 O.3     1  UNL1       -0.3779
      9 C          21.5037   74.1097    2.3985 C.3     1  UNL1        0.1713
     10 C          21.2401   72.6127    2.1457 C.3     1  UNL1        0.1764
     11 O          22.4927   71.9239    2.2999 O.3     1  UNL1       -0.3308
     12 O          20.7112   74.5869    3.4879 O.3     1  UNL1       -0.3794
     13 H          23.0465   75.9701    3.4904 H       1  UNL1        0.2106
     14 H          20.9644   75.5080    3.6351 H       1  UNL1        0.2105
     15 N          24.7198   72.3947    3.0305 N.ar    1  UNL1       -0.2551
     16 C          25.0812   71.1731    2.6008 C.ar    1  UNL1        0.3323
     17 N          26.3780   70.8522    2.4353 N.ar    1  UNL1       -0.2743
     18 C          27.3416   71.7548    2.7088 C.ar    1  UNL1        0.2626
     19 C          26.9754   73.0425    3.1676 C.ar    1  UNL1        0.0795
     20 C          25.6670   73.3396    3.3197 C.ar    1  UNL1        0.0869
     21 O          24.2237   70.3483    2.3498 O.2     1  UNL1       -0.2464
     22 O          28.5146   71.4641    2.5641 O.2     1  UNL1       -0.2670
     23 H          26.6205   69.9679    2.1199 H       1  UNL1        0.1734
     24 O          20.8026   72.5491   -2.6647 O.3     1  UNL1       -0.2703
     25 P          20.7960   71.6081   -3.9701 P.3     1  UNL1        0.2208
     26 O          20.9612   70.1960   -3.5608 O.2     1  UNL1       -0.5170
     27 O          22.0081   72.0295   -4.9424 O.3     1  UNL1       -0.4371
     28 O          19.3990   71.7806   -4.7505 O.3     1  UNL1       -0.2865
     29 C          19.5619   71.1701   -6.0319 C.3     1  UNL1        0.2611
     30 C          19.0934   72.1410   -7.1171 C.3     1  UNL1        0.1582
     31 C          17.6230   72.4970   -6.8703 C.3     1  UNL1        0.1625
     32 C          16.8156   71.1989   -6.7640 C.3     1  UNL1        0.1686
     33 C          17.4544   70.3002   -5.7030 C.3     1  UNL1        0.1760
     34 O          17.1315   73.2827   -7.9578 O.3     1  UNL1       -0.3801
     35 O          15.4707   71.5020   -6.3888 O.3     1  UNL1       -0.3794
     36 O          18.7890   69.9731   -6.0882 O.3     1  UNL1       -0.3263
     37 H          16.2061   73.4837   -7.7614 H       1  UNL1        0.2105
     38 H          14.9991   70.6588   -6.3327 H       1  UNL1        0.2105
     39 C          19.4874   74.4232   -6.3619 C.2     1  UNL1        0.2231
     40 C          20.3252   75.6755   -6.3148 C.3     1  UNL1        0.0946
     41 N          19.9071   73.3575   -7.0707 N.am    1  UNL1       -0.2994
     42 O          18.4347   74.3751   -5.7620 O.2     1  UNL1       -0.2751
     43 H          20.7494   73.3959   -7.5509 H       1  UNL1        0.1496
     44 C          16.6364   69.0145   -5.5659 C.3     1  UNL1        0.1693
     45 O          15.8373   69.0816   -4.3831 O.3     1  UNL1       -0.3794
     46 H          15.3394   68.2543   -4.3344 H       1  UNL1        0.2105
@<TRIPOS>BOND
     1    29    30    1
     2    29    28    1
     3    29    36    1
     4    30    31    1
     5    30    41    1
     6    31    32    1
     7    31    34    1
     8    32    33    1
     9    32    35    1
    10    33    44    1
    11    33    36    1
    12    44    45    1
    13    39    40    1
    14    39    41   am
    15    39    42    2
    16    41    43    1
    17    28    25    1
    18    34    37    1
    19    35    38    1
    20    45    46    1
    21    15    16   ar
    22    15    20   ar
    23    15     6    1
    24    16    17   ar
    25    16    21    2
    26    17    18   ar
    27    17    23    1
    28    18    19   ar
    29    18    22    2
    30    19    20   ar
    31     6     7    1
    32     6    11    1
    33     7     8    1
    34     7     9    1
    35     8    13    1
    36     9    10    1
    37     9    12    1
    38    10    11    1
    39    10     5    1
    40    12    14    1
    41     5     4    1
    42     4     1    1
    43     1     2    2
    44     1     3    1
    45     1    24    1
    46    24    25    1
    47    25    26    2
    48    25    27    1
@<TRIPOS>MOLECULE
UD1
 46 48 0 0 0
SMALL
GASTEIGER

@<TRIPOS>ATOM
      1 P          22.1461   72.3993   -3.4906 P.3     1  UNL1        0.2189
      2 O          22.7233   72.0718   -4.8128 O.2     1  UNL1       -0.5170
      3 O          22.5940   73.8856   -3.0627 O.3     1  UNL1       -0.4371
      4 O          22.6782   71.3438   -2.3971 O.3     1  UNL1       -0.3112
      5 C          23.2237   72.1049   -1.3184 C.3     1  UNL1        0.1811
      6 C          24.7601   71.2299    1.8123 C.3     1  UNL1        0.2383
      7 C          23.4006   71.8579    2.2092 C.3     1  UNL1        0.1895
      8 O          22.9055   71.2827    3.4188 O.3     1  UNL1       -0.3779
      9 C          22.5010   71.4746    1.0055 C.3     1  UNL1        0.1713
     10 C          23.5002   71.1821   -0.1305 C.3     1  UNL1        0.1764
     11 O          24.8199   71.4293    0.3839 O.3     1  UNL1       -0.3308
     12 O          21.7258   70.3131    1.3100 O.3     1  UNL1       -0.3794
     13 H          22.0617   71.7150    3.6098 H       1  UNL1        0.2106
     14 H          21.1659   70.5409    2.0642 H       1  UNL1        0.2105
     15 N          25.8654   71.9214    2.4767 N.ar    1  UNL1       -0.2551
     16 C          25.7086   73.1942    2.8803 C.ar    1  UNL1        0.3323
     17 N          26.7069   73.8535    3.4975 N.ar    1  UNL1       -0.2743
     18 C          27.8910   73.2459    3.7136 C.ar    1  UNL1        0.2626
     19 C          28.0716   71.9082    3.2884 C.ar    1  UNL1        0.0795
     20 C          27.0519   71.2686    2.6765 C.ar    1  UNL1        0.0869
     21 O          24.6465   73.7557    2.6927 O.2     1  UNL1       -0.2464
     22 O          28.7958   73.8427    4.2672 O.2     1  UNL1       -0.2670
     23 H          26.5747   74.7697    3.7863 H       1  UNL1        0.1734
     24 O          20.5410   72.3241   -3.5721 O.3     1  UNL1       -0.2703
     25 P          20.1456   70.7650   -3.5224 P.3     1  UNL1        0.2208
     26 O          19.4463   70.4738   -2.2516 O.2     1  UNL1       -0.5170
     27 O          21.4798   69.8690   -3.6174 O.3     1  UNL1       -0.4371
     28 O          19.1773   70.4160   -4.7598 O.3     1  UNL1       -0.2865
     29 C          18.6547   71.6561   -5.2398 C.3     1  UNL1        0.2611
     30 C          17.1570   71.5022   -5.5100 C.3     1  UNL1        0.1582
     31 C          16.9457   70.3898   -6.5432 C.3     1  UNL1        0.1625
     32 C          17.8025   70.6968   -7.7760 C.3     1  UNL1        0.1686
     33 C          19.2524   70.9084   -7.3351 C.3     1  UNL1        0.1760
     34 O          15.5672   70.3372   -6.9151 O.3     1  UNL1       -0.3801
     35 O          17.7346   69.6007   -8.6901 O.3     1  UNL1       -0.3794
     36 O          19.3277   72.0198   -6.4432 O.3     1  UNL1       -0.3263
     37 H          15.4799   69.6257   -7.5642 H       1  UNL1        0.2105
     38 H          18.2872   69.8349   -9.4492 H       1  UNL1        0.2105
     39 C          16.3005   69.8606   -3.9270 C.2     1  UNL1        0.2231
     40 C          15.5908   69.5021   -2.6464 C.3     1  UNL1        0.0946
     41 N          16.4680   71.1534   -4.2658 N.am    1  UNL1       -0.2994
     42 O          16.7204   68.9850   -4.6530 O.2     1  UNL1       -0.2751
     43 H          16.1318   71.8544   -3.6850 H       1  UNL1        0.1496
     44 C          20.1226   71.1836   -8.5632 C.3     1  UNL1        0.1693
     45 O          21.0403   72.2391   -8.2703 O.3     1  UNL1       -0.3794
     46 H          21.5677   72.3807   -9.0681 H       1  UNL1        0.2105
@<TRIPOS>BOND
     1    29    30    1
     2    29    28    1
     3    29    36    1
     4    30    31    1
     5    30    41    1
     6    31    32    1
     7    31    34    1
     8    32    33    1
     9    32    35    1
    10    33    44    1
    11    33    36    1
    12    44    45    1
    13    39    40    1
    14    39    41   am
    15    39    42    2
    16    41    43    1
    17    28    25    1
    18    34    37    1
    19    35    38    1
    20    45    46    1
    21    15    16   ar
    22    15    20   ar
    23    15     6    1
    24    16    17   ar
    25    16    21    2
    26    17    18   ar
    27    17    23    1
    28    18    19   ar
    29    18    22    2
    30    19    20   ar
    31     6     7    1
    32     6    11    1
    33     7     8    1
    34     7     9    1
    35     8    13    1
    36     9    10    1
    37     9    12    1
    38    10    11    1
    39    10     5    1
    40    12    14    1
    41     5     4    1
    42     4     1    1
    43     1     2    2
    44     1     3    1
    45     1    24    1
    46    24    25    1
    47    25    26    2
    48    25    27    1
