@<TRIPOS>MOLECULE
*****
 43 45 0 0 0
SMALL
GASTEIGER

@<TRIPOS>ATOM
      1 P          21.1189   73.9208   -5.3691 P.3     1  UNL1        0.2189
      2 O          19.7095   73.7922   -4.5843 O.co2   1  UNL1       -0.4371
      3 O          21.8774   75.1885   -5.1055 O.2     1  UNL1       -0.5170
      4 O          20.7297   73.6434   -6.9148 O.3     1  UNL1       -0.3112
      5 C          21.4196   72.6231   -7.6131 C.3     1  UNL1        0.1811
      6 O          20.0246   70.6977   -7.9658 O.3     1  UNL1       -0.3308
      7 O          18.6399   72.3186  -10.0745 O.3     1  UNL1       -0.3794
      8 O          16.9242   72.4982   -7.9625 O.3     1  UNL1       -0.3779
      9 C          19.1852   72.7397   -8.8240 C.3     1  UNL1        0.1713
     10 C          18.2935   72.2909   -7.6856 C.3     1  UNL1        0.1895
     11 C          20.4538   71.9368   -8.5705 C.3     1  UNL1        0.1764
     12 C          18.6499   70.8189   -7.5673 C.3     1  UNL1        0.2383
     13 H          17.8282   72.8178  -10.2582 H       1  UNL1        0.2105
     14 H          16.7482   73.4504   -8.0281 H       1  UNL1        0.2106
     15 O          16.2264   69.8790   -6.4628 O.2     1  UNL1       -0.2464
     16 O          18.2199   68.9537   -2.4114 O.2     1  UNL1       -0.2670
     17 N          18.5073   70.3266   -6.2263 N.ar    1  UNL1       -0.2551
     18 N          17.2214   69.4200   -4.4457 N.ar    1  UNL1       -0.2743
     19 C          17.2455   69.8780   -5.7696 C.ar    1  UNL1        0.3323
     20 C          19.6089   70.2901   -5.3801 C.ar    1  UNL1        0.0869
     21 C          19.5704   69.8507   -4.1207 C.ar    1  UNL1        0.0795
     22 C          18.2900   69.3650   -3.5656 C.ar    1  UNL1        0.2626
     23 H          16.3534   69.1044   -4.1046 H       1  UNL1        0.1734
     24 O          21.8967   72.5697   -4.9420 O.3     1  UNL1       -0.2703
     25 P          22.8508   72.2489   -3.6769 P.3     1  UNL1        0.2208
     26 O          24.1375   73.1968   -3.9343 O.co2   1  UNL1       -0.4371
     27 O          23.1788   70.7938   -3.5063 O.2     1  UNL1       -0.5170
     28 O          22.0980   72.9177   -2.4166 O.3     1  UNL1       -0.2858
     29 O          21.4245   71.1280   -1.0192 O.3     1  UNL1       -0.3226
     30 O          20.1700   74.4097    1.1544 O.3     1  UNL1       -0.3794
     31 O          19.7922   74.3188   -1.7410 O.3     1  UNL1       -0.3775
     32 O          22.5516   72.9500    1.9594 O.3     1  UNL1       -0.3792
     33 C          21.0120   73.6847    0.2581 C.3     1  UNL1        0.1718
     34 C          20.1931   73.2110   -0.9430 C.3     1  UNL1        0.1968
     35 C          21.5881   72.4862    1.0154 C.3     1  UNL1        0.1723
     36 C          21.0002   72.2410   -1.8071 C.3     1  UNL1        0.2706
     37 C          22.2683   71.5028    0.0674 C.3     1  UNL1        0.1830
     38 H          19.7923   75.1762    0.6950 H       1  UNL1        0.2105
     39 H          19.2799   74.9386   -1.1990 H       1  UNL1        0.2106
     40 H          22.1315   73.5769    2.5687 H       1  UNL1        0.2106
     41 O          21.8358   69.1993    0.1595 O.co2   1  UNL1       -0.5466
     42 O          23.2710   70.0510    1.7131 O.co2   1  UNL1       -0.5466
     43 C          22.5312   70.2012    0.7524 C.2     1  UNL1        0.0799
@<TRIPOS>UNITY_ATOM_ATTR
2 1
charge -1
26 1
charge -1
41 1
charge -1
@<TRIPOS>BOND
     1     1     4    1
     2     1    24    1
     3     1     2    1
     4     1     3    2
     5    25    28    1
     6    25    24    1
     7    25    26    1
     8    25    27    2
     9     6    11    1
    10     6    12    1
    11    29    36    1
    12    29    37    1
    13     7     9    1
    14     7    13    1
    15     8    10    1
    16     8    14    1
    17     4     5    1
    18    28    36    1
    19    30    33    1
    20    30    38    1
    21    31    34    1
    22    31    39    1
    23    32    35    1
    24    32    40    1
    25    41    43   ar
    26    15    19    2
    27    42    43   ar
    28    16    22    2
    29    17    12    1
    30    17    19   ar
    31    17    20   ar
    32    18    19   ar
    33    18    22   ar
    34    18    23    1
    35     9    10    1
    36     9    11    1
    37    10    12    1
    38    11     5    1
    39    33    34    1
    40    33    35    1
    41    34    36    1
    42    35    37    1
    43    37    43    1
    44    20    21   ar
    45    21    22   ar
@<TRIPOS>MOLECULE
*****
 43 45 0 0 0
SMALL
GASTEIGER

@<TRIPOS>ATOM
      1 P          22.6954   71.4738   -2.6541 P.3     1  UNL1        0.2189
      2 O          23.0608   72.9470   -3.2154 O.co2   1  UNL1       -0.4371
      3 O          23.4989   70.3531   -3.2459 O.2     1  UNL1       -0.5170
      4 O          21.0928   71.3695   -2.8510 O.3     1  UNL1       -0.3112
      5 C          20.4619   72.2659   -3.7471 C.3     1  UNL1        0.1811
      6 O          18.3252   72.3727   -4.8430 O.3     1  UNL1       -0.3308
      7 O          17.2239   70.9836   -2.4245 O.3     1  UNL1       -0.3794
      8 O          17.4395   68.9528   -4.2315 O.3     1  UNL1       -0.3779
      9 C          18.4871   70.8129   -3.0677 C.3     1  UNL1        0.1713
     10 C          18.3160   70.0520   -4.3654 C.3     1  UNL1        0.1895
     11 C          18.9531   72.1772   -3.5573 C.3     1  UNL1        0.1764
     12 C          17.7701   71.1259   -5.2910 C.3     1  UNL1        0.2383
     13 H          16.9057   70.1251   -2.1031 H       1  UNL1        0.2105
     14 H          17.8321   68.2972   -3.6331 H       1  UNL1        0.2106
     15 O          15.9666   70.4319   -7.3506 O.2     1  UNL1       -0.2464
     16 O          19.3244   70.3314  -10.5064 O.2     1  UNL1       -0.2670
     17 N          18.1461   70.9124   -6.6599 N.ar    1  UNL1       -0.2551
     18 N          17.6408   70.3815   -8.9202 N.ar    1  UNL1       -0.2743
     19 C          17.1624   70.5669   -7.6164 C.ar    1  UNL1        0.3323
     20 C          19.4750   71.0470   -7.0432 C.ar    1  UNL1        0.0869
     21 C          19.9158   70.8673   -8.2898 C.ar    1  UNL1        0.0795
     22 C          18.9525   70.5035   -9.3496 C.ar    1  UNL1        0.2626
     23 H          16.9748   70.1384   -9.6033 H       1  UNL1        0.1734
     24 O          22.8546   71.6450   -1.0547 O.3     1  UNL1       -0.2703
     25 P          22.5137   70.6343    0.1601 P.3     1  UNL1        0.2208
     26 O          23.7744   69.6189    0.1613 O.co2   1  UNL1       -0.4371
     27 O          21.1771   69.9606    0.0441 O.2     1  UNL1       -0.5170
     28 O          22.7033   71.5201    1.4950 O.3     1  UNL1       -0.2858
     29 O          21.8551   72.3987    3.5243 O.3     1  UNL1       -0.3226
     30 O          21.2823   75.5649    0.9329 O.3     1  UNL1       -0.3794
     31 O          20.6973   72.8316    0.0835 O.3     1  UNL1       -0.3775
     32 O          23.4553   75.6335    2.8627 O.3     1  UNL1       -0.3792
     33 C          21.9368   74.4066    1.4506 C.3     1  UNL1        0.1718
     34 C          20.9734   73.2197    1.4243 C.3     1  UNL1        0.1968
     35 C          22.3686   74.7099    2.8871 C.3     1  UNL1        0.1723
     36 C          21.5574   72.0244    2.1786 C.3     1  UNL1        0.2706
     37 C          22.8196   73.4451    3.6120 C.3     1  UNL1        0.1830
     38 H          20.9988   75.3956    0.0206 H       1  UNL1        0.2105
     39 H          20.3268   73.5854   -0.4011 H       1  UNL1        0.2106
     40 H          23.1814   76.4430    2.4038 H       1  UNL1        0.2106
     41 O          21.9981   72.9515    5.7528 O.co2   1  UNL1       -0.5466
     42 O          23.7251   74.4343    5.6178 O.co2   1  UNL1       -0.5466
     43 C          22.9217   73.6848    5.0832 C.2     1  UNL1        0.0799
@<TRIPOS>UNITY_ATOM_ATTR
2 1
charge -1
26 1
charge -1
41 1
charge -1
@<TRIPOS>BOND
     1     1     4    1
     2     1    24    1
     3     1     2    1
     4     1     3    2
     5    25    28    1
     6    25    24    1
     7    25    26    1
     8    25    27    2
     9     6    11    1
    10     6    12    1
    11    29    36    1
    12    29    37    1
    13     7     9    1
    14     7    13    1
    15     8    10    1
    16     8    14    1
    17     4     5    1
    18    28    36    1
    19    30    33    1
    20    30    38    1
    21    31    34    1
    22    31    39    1
    23    32    35    1
    24    32    40    1
    25    41    43   ar
    26    15    19    2
    27    42    43   ar
    28    16    22    2
    29    17    12    1
    30    17    19   ar
    31    17    20   ar
    32    18    19   ar
    33    18    22   ar
    34    18    23    1
    35     9    10    1
    36     9    11    1
    37    10    12    1
    38    11     5    1
    39    33    34    1
    40    33    35    1
    41    34    36    1
    42    35    37    1
    43    37    43    1
    44    20    21   ar
    45    21    22   ar
@<TRIPOS>MOLECULE
*****
 43 45 0 0 0
SMALL
GASTEIGER

@<TRIPOS>ATOM
      1 P          22.8228   71.7772   -2.3445 P.3     1  UNL1        0.2189
      2 O          23.5587   73.2130   -2.4698 O.co2   1  UNL1       -0.4371
      3 O          23.3871   70.6975   -3.2206 O.2     1  UNL1       -0.5170
      4 O          21.2584   72.1211   -2.5726 O.3     1  UNL1       -0.3112
      5 C          20.5472   71.4073   -3.5672 C.3     1  UNL1        0.1811
      6 O          18.6064   72.2051   -4.7396 O.3     1  UNL1       -0.3308
      7 O          16.9972   71.0059   -2.5116 O.3     1  UNL1       -0.3794
      8 O          16.7558   69.1445   -4.4897 O.3     1  UNL1       -0.3779
      9 C          18.2023   70.5315   -3.1127 C.3     1  UNL1        0.1713
     10 C          17.9129   69.9542   -4.4821 C.3     1  UNL1        0.1895
     11 C          19.0650   71.7393   -3.4519 C.3     1  UNL1        0.1764
     12 C          17.7550   71.2076   -5.3258 C.3     1  UNL1        0.2383
     13 H          16.4295   70.2519   -2.2859 H       1  UNL1        0.2105
     14 H          16.9067   68.3597   -3.9389 H       1  UNL1        0.2106
     15 O          16.0124   70.3463   -7.3747 O.2     1  UNL1       -0.2464
     16 O          19.3724   70.4533  -10.5280 O.2     1  UNL1       -0.2670
     17 N          18.1481   71.0023   -6.6912 N.ar    1  UNL1       -0.2551
     18 N          17.6877   70.3995   -8.9431 N.ar    1  UNL1       -0.2743
     19 C          17.1948   70.5680   -7.6424 C.ar    1  UNL1        0.3323
     20 C          19.4633   71.2319   -7.0763 C.ar    1  UNL1        0.0869
     21 C          19.9183   71.0670   -8.3200 C.ar    1  UNL1        0.0795
     22 C          18.9868   70.6145   -9.3741 C.ar    1  UNL1        0.2626
     23 H          17.0431   70.0957   -9.6224 H       1  UNL1        0.1734
     24 O          22.8994   71.4672   -0.7599 O.3     1  UNL1       -0.2703
     25 P          22.0407   70.4588    0.1671 P.3     1  UNL1        0.2208
     26 O          23.1642   69.4581    0.7643 O.co2   1  UNL1       -0.4371
     27 O          20.9167   69.7690   -0.5505 O.2     1  UNL1       -0.5170
     28 O          21.5807   71.3535    1.4282 O.3     1  UNL1       -0.2858
     29 O          22.2631   73.5538    0.8785 O.3     1  UNL1       -0.3226
     30 O          20.2279   74.1653    4.4214 O.3     1  UNL1       -0.3794
     31 O          22.0271   71.8833    4.1219 O.3     1  UNL1       -0.3775
     32 O          18.9961   74.8840    1.8882 O.3     1  UNL1       -0.3792
     33 C          20.5148   73.5280    3.1765 C.3     1  UNL1        0.1718
     34 C          21.9368   72.9672    3.2045 C.3     1  UNL1        0.1968
     35 C          20.3766   74.5732    2.0673 C.3     1  UNL1        0.1723
     36 C          22.3611   72.4824    1.8175 C.3     1  UNL1        0.2706
     37 C          20.9364   74.0588    0.7442 C.3     1  UNL1        0.1830
     38 H          20.3095   73.5202    5.1414 H       1  UNL1        0.2105
     39 H          21.7590   72.1837    5.0041 H       1  UNL1        0.2106
     40 H          18.6276   75.2125    2.7231 H       1  UNL1        0.2106
     41 O          19.9059   75.5140   -0.7795 O.co2   1  UNL1       -0.5466
     42 O          22.1602   75.7202   -0.5062 O.co2   1  UNL1       -0.5466
     43 C          21.1003   75.1770   -0.2330 C.2     1  UNL1        0.0799
@<TRIPOS>UNITY_ATOM_ATTR
2 1
charge -1
26 1
charge -1
41 1
charge -1
@<TRIPOS>BOND
     1     1     4    1
     2     1    24    1
     3     1     2    1
     4     1     3    2
     5    25    28    1
     6    25    24    1
     7    25    26    1
     8    25    27    2
     9     6    11    1
    10     6    12    1
    11    29    36    1
    12    29    37    1
    13     7     9    1
    14     7    13    1
    15     8    10    1
    16     8    14    1
    17     4     5    1
    18    28    36    1
    19    30    33    1
    20    30    38    1
    21    31    34    1
    22    31    39    1
    23    32    35    1
    24    32    40    1
    25    41    43   ar
    26    15    19    2
    27    42    43   ar
    28    16    22    2
    29    17    12    1
    30    17    19   ar
    31    17    20   ar
    32    18    19   ar
    33    18    22   ar
    34    18    23    1
    35     9    10    1
    36     9    11    1
    37    10    12    1
    38    11     5    1
    39    33    34    1
    40    33    35    1
    41    34    36    1
    42    35    37    1
    43    37    43    1
    44    20    21   ar
    45    21    22   ar
@<TRIPOS>MOLECULE
*****
 43 45 0 0 0
SMALL
GASTEIGER

@<TRIPOS>ATOM
      1 P          21.6407   70.9504   -1.1203 P.3     1  UNL1        0.2189
      2 O          23.2433   70.7438   -1.2095 O.co2   1  UNL1       -0.4371
      3 O          20.8464   69.6863   -0.9691 O.2     1  UNL1       -0.5170
      4 O          21.2918   71.8483   -2.4203 O.3     1  UNL1       -0.3112
      5 C          20.5760   71.2481   -3.4842 C.3     1  UNL1        0.1811
      6 O          18.6720   72.1415   -4.6479 O.3     1  UNL1       -0.3308
      7 O          17.0071   70.9441   -2.4603 O.3     1  UNL1       -0.3794
      8 O          16.7151   69.1418   -4.4857 O.3     1  UNL1       -0.3779
      9 C          18.1991   70.4432   -3.0658 C.3     1  UNL1        0.1713
     10 C          17.8994   69.9104   -4.4509 C.3     1  UNL1        0.1895
     11 C          19.1054   71.6283   -3.3696 C.3     1  UNL1        0.1764
     12 C          17.7907   71.1891   -5.2640 C.3     1  UNL1        0.2383
     13 H          16.4121   70.2049   -2.2570 H       1  UNL1        0.2105
     14 H          16.8350   68.3389   -3.9538 H       1  UNL1        0.2106
     15 O          16.0557   70.3395   -7.3242 O.2     1  UNL1       -0.2464
     16 O          19.4156   70.5133  -10.4746 O.2     1  UNL1       -0.2670
     17 N          18.1858   71.0040   -6.6317 N.ar    1  UNL1       -0.2551
     18 N          17.7310   70.4259   -8.8911 N.ar    1  UNL1       -0.2743
     19 C          17.2364   70.5741   -7.5887 C.ar    1  UNL1        0.3323
     20 C          19.4993   71.2491   -7.0134 C.ar    1  UNL1        0.0869
     21 C          19.9559   71.1035   -8.2588 C.ar    1  UNL1        0.0795
     22 C          19.0284   70.6568   -9.3189 C.ar    1  UNL1        0.2626
     23 H          17.0891   70.1255   -9.5745 H       1  UNL1        0.1734
     24 O          21.4773   71.9983    0.0996 O.3     1  UNL1       -0.2703
     25 P          21.9171   71.8970    1.6520 P.3     1  UNL1        0.2208
     26 O          22.7713   70.5230    1.7055 O.co2   1  UNL1       -0.4371
     27 O          20.7719   71.9513    2.6212 O.2     1  UNL1       -0.5170
     28 O          23.0128   73.0653    1.8441 O.3     1  UNL1       -0.2858
     29 O          22.2854   74.4415    3.6291 O.3     1  UNL1       -0.3226
     30 O          25.8272   76.2719    2.5458 O.3     1  UNL1       -0.3794
     31 O          23.9752   75.3045    0.5040 O.3     1  UNL1       -0.3775
     32 O          25.7033   74.6401    4.9484 O.3     1  UNL1       -0.3792
     33 C          24.9293   75.1776    2.7310 C.3     1  UNL1        0.1718
     34 C          23.6714   75.3998    1.8908 C.3     1  UNL1        0.1968
     35 C          24.5709   75.1063    4.2171 C.3     1  UNL1        0.1723
     36 C          22.5938   74.3712    2.2365 C.3     1  UNL1        0.2706
     37 C          23.4049   74.1534    4.4639 C.3     1  UNL1        0.1830
     38 H          26.0689   76.3369    1.6084 H       1  UNL1        0.2105
     39 H          24.6586   75.9543    0.2777 H       1  UNL1        0.2106
     40 H          26.4527   75.2378    4.7999 H       1  UNL1        0.2106
     41 O          23.4741   75.3618    6.4730 O.co2   1  UNL1       -0.5466
     42 O          21.9628   73.6601    6.3343 O.co2   1  UNL1       -0.5466
     43 C          22.8528   74.3359    5.8402 C.2     1  UNL1        0.0799
@<TRIPOS>UNITY_ATOM_ATTR
2 1
charge -1
26 1
charge -1
41 1
charge -1
@<TRIPOS>BOND
     1     1     4    1
     2     1    24    1
     3     1     2    1
     4     1     3    2
     5    25    28    1
     6    25    24    1
     7    25    26    1
     8    25    27    2
     9     6    11    1
    10     6    12    1
    11    29    36    1
    12    29    37    1
    13     7     9    1
    14     7    13    1
    15     8    10    1
    16     8    14    1
    17     4     5    1
    18    28    36    1
    19    30    33    1
    20    30    38    1
    21    31    34    1
    22    31    39    1
    23    32    35    1
    24    32    40    1
    25    41    43   ar
    26    15    19    2
    27    42    43   ar
    28    16    22    2
    29    17    12    1
    30    17    19   ar
    31    17    20   ar
    32    18    19   ar
    33    18    22   ar
    34    18    23    1
    35     9    10    1
    36     9    11    1
    37    10    12    1
    38    11     5    1
    39    33    34    1
    40    33    35    1
    41    34    36    1
    42    35    37    1
    43    37    43    1
    44    20    21   ar
    45    21    22   ar
@<TRIPOS>MOLECULE
*****
 43 45 0 0 0
SMALL
GASTEIGER

@<TRIPOS>ATOM
      1 P          22.6887   71.0423   -1.9597 P.3     1  UNL1        0.2189
      2 O          23.5178   70.6874   -3.3034 O.co2   1  UNL1       -0.4371
      3 O          23.2938   70.5266   -0.6871 O.2     1  UNL1       -0.5170
      4 O          21.1882   70.5300   -2.2824 O.3     1  UNL1       -0.3112
      5 C          20.6519   70.7761   -3.5694 C.3     1  UNL1        0.1811
      6 O          18.8329   71.8952   -4.6723 O.3     1  UNL1       -0.3308
      7 O          17.0767   70.7613   -2.5225 O.3     1  UNL1       -0.3794
      8 O          16.6041   69.0874   -4.6227 O.3     1  UNL1       -0.3779
      9 C          18.2126   70.1790   -3.1622 C.3     1  UNL1        0.1713
     10 C          17.8555   69.7395   -4.5663 C.3     1  UNL1        0.1895
     11 C          19.2243   71.2867   -3.4226 C.3     1  UNL1        0.1764
     12 C          17.8623   71.0581   -5.3208 C.3     1  UNL1        0.2383
     13 H          16.4162   70.0726   -2.3460 H       1  UNL1        0.2105
     14 H          16.6514   68.2536   -4.1281 H       1  UNL1        0.2106
     15 O          16.0454   70.4472   -7.3950 O.2     1  UNL1       -0.2464
     16 O          19.3836   70.4700  -10.5731 O.2     1  UNL1       -0.2670
     17 N          18.2296   70.8988   -6.6993 N.ar    1  UNL1       -0.2551
     18 N          17.7099   70.4582   -8.9757 N.ar    1  UNL1       -0.2743
     19 C          17.2397   70.5920   -7.6627 C.ar    1  UNL1        0.3323
     20 C          19.5562   71.0478   -7.0853 C.ar    1  UNL1        0.0869
     21 C          19.9892   70.9173   -8.3408 C.ar    1  UNL1        0.0795
     22 C          19.0189   70.5964   -9.4081 C.ar    1  UNL1        0.2626
     23 H          17.0395   70.2426   -9.6638 H       1  UNL1        0.1734
     24 O          22.5475   72.6508   -2.0347 O.3     1  UNL1       -0.2703
     25 P          23.0780   73.7130   -3.1319 P.3     1  UNL1        0.2208
     26 O          24.0616   72.8245   -4.0613 O.co2   1  UNL1       -0.4371
     27 O          23.7202   74.9363   -2.5446 O.2     1  UNL1       -0.5170
     28 O          21.7965   74.0121   -4.0650 O.3     1  UNL1       -0.2858
     29 O          22.2923   75.9873   -5.2742 O.3     1  UNL1       -0.3226
     30 O          18.5714   74.9968   -6.7714 O.3     1  UNL1       -0.3794
     31 O          19.1251   74.7712   -3.9118 O.3     1  UNL1       -0.3775
     32 O          20.9592   74.5076   -8.3556 O.3     1  UNL1       -0.3792
     33 C          19.8647   74.7440   -6.2223 C.3     1  UNL1        0.1718
     34 C          19.9787   75.4128   -4.8522 C.3     1  UNL1        0.1968
     35 C          20.9073   75.3190   -7.1837 C.3     1  UNL1        0.1723
     36 C          21.4172   75.3603   -4.3358 C.3     1  UNL1        0.2706
     37 C          22.2945   75.3480   -6.5487 C.3     1  UNL1        0.1830
     38 H          17.8923   74.6402   -6.1773 H       1  UNL1        0.2105
     39 H          18.2106   74.8005   -4.2333 H       1  UNL1        0.2106
     40 H          20.0823   74.4807   -8.7694 H       1  UNL1        0.2106
     41 O          24.3149   75.4859   -7.7321 O.co2   1  UNL1       -0.5466
     42 O          23.0404   77.3736   -7.6266 O.co2   1  UNL1       -0.5466
     43 C          23.2266   76.1983   -7.3490 C.2     1  UNL1        0.0799
@<TRIPOS>UNITY_ATOM_ATTR
2 1
charge -1
26 1
charge -1
41 1
charge -1
@<TRIPOS>BOND
     1     1     4    1
     2     1    24    1
     3     1     2    1
     4     1     3    2
     5    25    28    1
     6    25    24    1
     7    25    26    1
     8    25    27    2
     9     6    11    1
    10     6    12    1
    11    29    36    1
    12    29    37    1
    13     7     9    1
    14     7    13    1
    15     8    10    1
    16     8    14    1
    17     4     5    1
    18    28    36    1
    19    30    33    1
    20    30    38    1
    21    31    34    1
    22    31    39    1
    23    32    35    1
    24    32    40    1
    25    41    43   ar
    26    15    19    2
    27    42    43   ar
    28    16    22    2
    29    17    12    1
    30    17    19   ar
    31    17    20   ar
    32    18    19   ar
    33    18    22   ar
    34    18    23    1
    35     9    10    1
    36     9    11    1
    37    10    12    1
    38    11     5    1
    39    33    34    1
    40    33    35    1
    41    34    36    1
    42    35    37    1
    43    37    43    1
    44    20    21   ar
    45    21    22   ar
@<TRIPOS>MOLECULE
*****
 43 45 0 0 0
SMALL
GASTEIGER

@<TRIPOS>ATOM
      1 P          22.7602   72.7464   -3.9493 P.3     1  UNL1        0.2189
      2 O          23.0607   72.9409   -5.5275 O.co2   1  UNL1       -0.4371
      3 O          23.4498   71.5756   -3.3126 O.2     1  UNL1       -0.5170
      4 O          21.1447   72.7447   -3.8588 O.3     1  UNL1       -0.3112
      5 C          20.4874   71.5352   -3.5281 C.3     1  UNL1        0.1811
      6 O          18.5136   72.2576   -4.6943 O.3     1  UNL1       -0.3308
      7 O          16.9581   70.9642   -2.4809 O.3     1  UNL1       -0.3794
      8 O          16.8016   69.1149   -4.4788 O.3     1  UNL1       -0.3779
      9 C          18.1836   70.5506   -3.0856 C.3     1  UNL1        0.1713
     10 C          17.9213   69.9754   -4.4613 C.3     1  UNL1        0.1895
     11 C          18.9917   71.7993   -3.4111 C.3     1  UNL1        0.1764
     12 C          17.7081   71.2294   -5.2920 C.3     1  UNL1        0.2383
     13 H          16.4245   70.1833   -2.2639 H       1  UNL1        0.2105
     14 H          16.9871   68.3319   -3.9360 H       1  UNL1        0.2106
     15 O          16.0120   70.2961   -7.3483 O.2     1  UNL1       -0.2464
     16 O          19.3610   70.6039  -10.5001 O.2     1  UNL1       -0.2670
     17 N          18.1110   71.0562   -6.6590 N.ar    1  UNL1       -0.2551
     18 N          17.6819   70.4493   -8.9159 N.ar    1  UNL1       -0.2743
     19 C          17.1813   70.5810   -7.6140 C.ar    1  UNL1        0.3323
     20 C          19.4124   71.3570   -7.0419 C.ar    1  UNL1        0.0869
     21 C          19.8749   71.2264   -8.2868 C.ar    1  UNL1        0.0795
     22 C          18.9680   70.7351   -9.3449 C.ar    1  UNL1        0.2626
     23 H          17.0537   70.1182   -9.5979 H       1  UNL1        0.1734
     24 O          23.1576   74.1833   -3.3245 O.3     1  UNL1       -0.2703
     25 P          22.4848   75.0459   -2.1342 P.3     1  UNL1        0.2208
     26 O          20.9344   75.1544   -2.5869 O.co2   1  UNL1       -0.4371
     27 O          23.1490   76.3682   -1.8806 O.2     1  UNL1       -0.5170
     28 O          22.4696   74.0500   -0.8652 O.3     1  UNL1       -0.2858
     29 O          21.4650   71.9899   -0.2687 O.3     1  UNL1       -0.3226
     30 O          20.8469   74.2441    3.1378 O.3     1  UNL1       -0.3794
     31 O          20.4684   75.4241    0.4923 O.3     1  UNL1       -0.3775
     32 O          22.9065   72.1930    3.0993 O.3     1  UNL1       -0.3792
     33 C          21.5394   73.8199    1.9638 C.3     1  UNL1        0.1718
     34 C          20.6498   74.0346    0.7391 C.3     1  UNL1        0.1968
     35 C          21.8759   72.3355    2.1236 C.3     1  UNL1        0.1723
     36 C          21.2615   73.3839   -0.5023 C.3     1  UNL1        0.2706
     37 C          22.3608   71.7296    0.8097 C.3     1  UNL1        0.1830
     38 H          20.6226   75.1847    3.0590 H       1  UNL1        0.2105
     39 H          20.0808   75.8434    1.2761 H       1  UNL1        0.2106
     40 H          22.6107   72.5749    3.9404 H       1  UNL1        0.2106
     41 O          23.4525   69.8001    1.5757 O.co2   1  UNL1       -0.5466
     42 O          21.5228   69.5050    0.3974 O.co2   1  UNL1       -0.5466
     43 C          22.3703   70.2375    0.8853 C.2     1  UNL1        0.0799
@<TRIPOS>UNITY_ATOM_ATTR
2 1
charge -1
26 1
charge -1
41 1
charge -1
@<TRIPOS>BOND
     1     1     4    1
     2     1    24    1
     3     1     2    1
     4     1     3    2
     5    25    28    1
     6    25    24    1
     7    25    26    1
     8    25    27    2
     9     6    11    1
    10     6    12    1
    11    29    36    1
    12    29    37    1
    13     7     9    1
    14     7    13    1
    15     8    10    1
    16     8    14    1
    17     4     5    1
    18    28    36    1
    19    30    33    1
    20    30    38    1
    21    31    34    1
    22    31    39    1
    23    32    35    1
    24    32    40    1
    25    41    43   ar
    26    15    19    2
    27    42    43   ar
    28    16    22    2
    29    17    12    1
    30    17    19   ar
    31    17    20   ar
    32    18    19   ar
    33    18    22   ar
    34    18    23    1
    35     9    10    1
    36     9    11    1
    37    10    12    1
    38    11     5    1
    39    33    34    1
    40    33    35    1
    41    34    36    1
    42    35    37    1
    43    37    43    1
    44    20    21   ar
    45    21    22   ar
@<TRIPOS>MOLECULE
*****
 43 45 0 0 0
SMALL
GASTEIGER

@<TRIPOS>ATOM
      1 P          22.3052   75.0189   -8.2627 P.3     1  UNL1        0.2189
      2 O          20.8271   75.6585   -8.1049 O.co2   1  UNL1       -0.4371
      3 O          23.2731   75.8482   -9.0547 O.2     1  UNL1       -0.5170
      4 O          22.0257   73.5303   -8.8317 O.3     1  UNL1       -0.3112
      5 C          21.2753   72.6319   -8.0353 C.3     1  UNL1        0.1811
      6 O          19.8671   70.6934   -8.2275 O.3     1  UNL1       -0.3308
      7 O          18.4476   72.1715  -10.4165 O.3     1  UNL1       -0.3794
      8 O          16.7737   72.5048   -8.2898 O.3     1  UNL1       -0.3779
      9 C          19.0184   72.6753   -9.2086 C.3     1  UNL1        0.1713
     10 C          18.1473   72.3105   -8.0253 C.3     1  UNL1        0.1895
     11 C          20.2889   71.8858   -8.9244 C.3     1  UNL1        0.1764
     12 C          18.5007   70.8484   -7.8123 C.3     1  UNL1        0.2383
     13 H          17.6344   72.6607  -10.6188 H       1  UNL1        0.2105
     14 H          16.5997   73.4510   -8.4176 H       1  UNL1        0.2106
     15 O          16.1599   69.7651   -6.6618 O.2     1  UNL1       -0.2464
     16 O          18.1603   69.3575   -2.5295 O.2     1  UNL1       -0.2670
     17 N          18.3823   70.4505   -6.4381 N.ar    1  UNL1       -0.2551
     18 N          17.1582   69.5641   -4.6045 N.ar    1  UNL1       -0.2743
     19 C          17.1617   69.9177   -5.9602 C.ar    1  UNL1        0.3323
     20 C          19.4668   70.5879   -5.5803 C.ar    1  UNL1        0.0869
     21 C          19.4484   70.2463   -4.2905 C.ar    1  UNL1        0.0795
     22 C          18.2111   69.6825   -3.7118 C.ar    1  UNL1        0.2626
     23 H          16.3188   69.1927   -4.2484 H       1  UNL1        0.1734
     24 O          22.7477   74.7458   -6.7322 O.3     1  UNL1       -0.2703
     25 P          23.3024   75.7493   -5.5925 P.3     1  UNL1        0.2208
     26 O          22.2270   76.9590   -5.6096 O.co2   1  UNL1       -0.4371
     27 O          24.7252   76.1838   -5.7941 O.2     1  UNL1       -0.5170
     28 O          23.0280   74.9802   -4.2012 O.3     1  UNL1       -0.2858
     29 O          22.0805   72.8461   -3.8049 O.3     1  UNL1       -0.3226
     30 O          20.8492   74.9456   -0.4666 O.3     1  UNL1       -0.3794
     31 O          20.7735   76.1889   -3.1091 O.3     1  UNL1       -0.3775
     32 O          23.0183   73.0209   -0.2620 O.3     1  UNL1       -0.3792
     33 C          21.7253   74.6019   -1.5401 C.3     1  UNL1        0.1718
     34 C          21.0051   74.8049   -2.8734 C.3     1  UNL1        0.1968
     35 C          22.1282   73.1353   -1.3707 C.3     1  UNL1        0.1723
     36 C          21.8250   74.2329   -4.0307 C.3     1  UNL1        0.2706
     37 C          22.8302   72.6030   -2.6167 C.3     1  UNL1        0.1830
     38 H          20.5798   75.8736   -0.5533 H       1  UNL1        0.2105
     39 H          20.2540   76.5584   -2.3784 H       1  UNL1        0.2106
     40 H          22.5837   73.3566    0.5375 H       1  UNL1        0.2106
     41 O          22.1292   70.6092   -1.5993 O.co2   1  UNL1       -0.5466
     42 O          23.6130   70.4323   -3.3216 O.co2   1  UNL1       -0.5466
     43 C          22.9225   71.1123   -2.5774 C.2     1  UNL1        0.0799
@<TRIPOS>UNITY_ATOM_ATTR
2 1
charge -1
26 1
charge -1
41 1
charge -1
@<TRIPOS>BOND
     1     1     4    1
     2     1    24    1
     3     1     2    1
     4     1     3    2
     5    25    28    1
     6    25    24    1
     7    25    26    1
     8    25    27    2
     9     6    11    1
    10     6    12    1
    11    29    36    1
    12    29    37    1
    13     7     9    1
    14     7    13    1
    15     8    10    1
    16     8    14    1
    17     4     5    1
    18    28    36    1
    19    30    33    1
    20    30    38    1
    21    31    34    1
    22    31    39    1
    23    32    35    1
    24    32    40    1
    25    41    43   ar
    26    15    19    2
    27    42    43   ar
    28    16    22    2
    29    17    12    1
    30    17    19   ar
    31    17    20   ar
    32    18    19   ar
    33    18    22   ar
    34    18    23    1
    35     9    10    1
    36     9    11    1
    37    10    12    1
    38    11     5    1
    39    33    34    1
    40    33    35    1
    41    34    36    1
    42    35    37    1
    43    37    43    1
    44    20    21   ar
    45    21    22   ar
@<TRIPOS>MOLECULE
*****
 43 45 0 0 0
SMALL
GASTEIGER

@<TRIPOS>ATOM
      1 P          20.2193   70.1520   -3.2105 P.3     1  UNL1        0.2189
      2 O          19.7550   69.4385   -4.5868 O.co2   1  UNL1       -0.4371
      3 O          20.9544   69.2617   -2.2520 O.2     1  UNL1       -0.5170
      4 O          18.8610   70.8246   -2.6441 O.3     1  UNL1       -0.3112
      5 C          17.7843   71.0309   -3.5399 C.3     1  UNL1        0.1811
      6 O          18.4298   72.8121   -5.0192 O.3     1  UNL1       -0.3308
      7 O          16.1327   74.3545   -3.8634 O.3     1  UNL1       -0.3794
      8 O          15.1251   73.4768   -6.2404 O.3     1  UNL1       -0.3779
      9 C          16.2350   72.9576   -4.1403 C.3     1  UNL1        0.1713
     10 C          16.1432   72.7107   -5.6312 C.3     1  UNL1        0.1895
     11 C          17.6607   72.5208   -3.8323 C.3     1  UNL1        0.1764
     12 C          17.5327   73.1045   -6.1023 C.3     1  UNL1        0.2383
     13 H          15.2303   74.6567   -4.0527 H       1  UNL1        0.2105
     14 H          14.2603   73.1879   -5.9080 H       1  UNL1        0.2106
     15 O          16.4803   70.5953   -6.8591 O.2     1  UNL1       -0.2464
     16 O          19.1965   70.3726  -10.5762 O.2     1  UNL1       -0.2670
     17 N          17.9468   72.3686   -7.2633 N.ar    1  UNL1       -0.2551
     18 N          17.8349   70.4863   -8.7092 N.ar    1  UNL1       -0.2743
     19 C          17.3549   71.1166   -7.5536 C.ar    1  UNL1        0.3323
     20 C          18.9268   72.8878   -8.1005 C.ar    1  UNL1        0.0869
     21 C          19.3740   72.2753   -9.1985 C.ar    1  UNL1        0.0795
     22 C          18.8081   70.9626   -9.5726 C.ar    1  UNL1        0.2626
     23 H          17.4392   69.6124   -8.9308 H       1  UNL1        0.1734
     24 O          21.0665   71.4267   -3.7304 O.3     1  UNL1       -0.2703
     25 P          22.5941   71.8733   -3.4461 P.3     1  UNL1        0.2208
     26 O          22.9995   72.6803   -4.7895 O.co2   1  UNL1       -0.4371
     27 O          23.5146   70.7372   -3.1056 O.2     1  UNL1       -0.5170
     28 O          22.4830   73.0096   -2.3064 O.3     1  UNL1       -0.2858
     29 O          21.2048   72.1930   -0.4874 O.3     1  UNL1       -0.3226
     30 O          21.9720   76.0750    0.6997 O.3     1  UNL1       -0.3794
     31 O          21.2456   75.4892   -2.0686 O.3     1  UNL1       -0.3775
     32 O          23.4283   73.8660    1.9041 O.3     1  UNL1       -0.3792
     33 C          22.2410   74.8352    0.0451 C.3     1  UNL1        0.1718
     34 C          21.1549   74.5596   -0.9951 C.3     1  UNL1        0.1968
     35 C          22.2533   73.7329    1.1066 C.3     1  UNL1        0.1723
     36 C          21.2790   73.1411   -1.5529 C.3     1  UNL1        0.2706
     37 C          22.2505   72.3462    0.4697 C.3     1  UNL1        0.1830
     38 H          21.9593   76.7906    0.0447 H       1  UNL1        0.2105
     39 H          21.1680   76.3915   -1.7218 H       1  UNL1        0.2106
     40 H          23.4423   74.7445    2.3151 H       1  UNL1        0.2106
     41 O          21.2763   71.8366    2.5416 O.co2   1  UNL1       -0.5466
     42 O          22.2187   70.1134    1.3833 O.co2   1  UNL1       -0.5466
     43 C          21.9326   71.2970    1.4847 C.2     1  UNL1        0.0799
@<TRIPOS>UNITY_ATOM_ATTR
2 1
charge -1
26 1
charge -1
41 1
charge -1
@<TRIPOS>BOND
     1     1     4    1
     2     1    24    1
     3     1     2    1
     4     1     3    2
     5    25    28    1
     6    25    24    1
     7    25    26    1
     8    25    27    2
     9     6    11    1
    10     6    12    1
    11    29    36    1
    12    29    37    1
    13     7     9    1
    14     7    13    1
    15     8    10    1
    16     8    14    1
    17     4     5    1
    18    28    36    1
    19    30    33    1
    20    30    38    1
    21    31    34    1
    22    31    39    1
    23    32    35    1
    24    32    40    1
    25    41    43   ar
    26    15    19    2
    27    42    43   ar
    28    16    22    2
    29    17    12    1
    30    17    19   ar
    31    17    20   ar
    32    18    19   ar
    33    18    22   ar
    34    18    23    1
    35     9    10    1
    36     9    11    1
    37    10    12    1
    38    11     5    1
    39    33    34    1
    40    33    35    1
    41    34    36    1
    42    35    37    1
    43    37    43    1
    44    20    21   ar
    45    21    22   ar
@<TRIPOS>MOLECULE
*****
 43 45 0 0 0
SMALL
GASTEIGER

@<TRIPOS>ATOM
      1 P          21.1099   72.8705   -5.7391 P.3     1  UNL1        0.2189
      2 O          19.7992   73.5690   -5.0965 O.co2   1  UNL1       -0.4371
      3 O          22.1526   73.8241   -6.2443 O.2     1  UNL1       -0.5170
      4 O          20.5057   71.8449   -6.8350 O.3     1  UNL1       -0.3112
      5 C          19.3489   71.1008   -6.4991 C.3     1  UNL1        0.1811
      6 O          17.1966   70.9552   -7.5593 O.3     1  UNL1       -0.3308
      7 O          18.6893   70.8788  -10.1589 O.3     1  UNL1       -0.3794
      8 O          17.8462   73.4690  -10.0318 O.3     1  UNL1       -0.3779
      9 C          18.9879   71.6052   -8.9664 C.3     1  UNL1        0.1713
     10 C          18.0416   72.7774   -8.8160 C.3     1  UNL1        0.1895
     11 C          18.6068   70.7335   -7.7776 C.3     1  UNL1        0.1764
     12 C          16.7761   72.0994   -8.3191 C.3     1  UNL1        0.2383
     13 H          18.9244   71.4157  -10.9323 H       1  UNL1        0.2105
     14 H          18.6802   73.8831  -10.3057 H       1  UNL1        0.2106
     15 O          14.9206   74.0046   -9.2698 O.2     1  UNL1       -0.2464
     16 O          13.8162   75.3313   -4.9962 O.2     1  UNL1       -0.2670
     17 N          15.9901   72.9560   -7.4768 N.ar    1  UNL1       -0.2551
     18 N          14.3730   74.6642   -7.1404 N.ar    1  UNL1       -0.2743
     19 C          15.0870   73.8790   -8.0552 C.ar    1  UNL1        0.3323
     20 C          16.1165   72.8759   -6.0953 C.ar    1  UNL1        0.0869
     21 C          15.4291   73.6310   -5.2362 C.ar    1  UNL1        0.0795
     22 C          14.4649   74.6213   -5.7587 C.ar    1  UNL1        0.2626
     23 H          13.7395   75.3156   -7.5195 H       1  UNL1        0.1734
     24 O          21.6123   71.8868   -4.5589 O.3     1  UNL1       -0.2703
     25 P          22.6238   72.1412   -3.3237 P.3     1  UNL1        0.2208
     26 O          23.8559   72.9342   -4.0118 O.co2   1  UNL1       -0.4371
     27 O          23.0240   70.8948   -2.5887 O.2     1  UNL1       -0.5170
     28 O          21.8856   73.2484   -2.4116 O.3     1  UNL1       -0.2858
     29 O          19.7996   72.3204   -1.7821 O.3     1  UNL1       -0.3226
     30 O          22.4428   69.4630   -0.3978 O.3     1  UNL1       -0.3794
     31 O          23.0215   72.3058   -0.0542 O.3     1  UNL1       -0.3775
     32 O          20.9055   68.9786   -2.8171 O.3     1  UNL1       -0.3792
     33 C          21.9729   70.4886   -1.2726 C.3     1  UNL1        0.1718
     34 C          21.7699   71.7817   -0.4825 C.3     1  UNL1        0.1968
     35 C          20.6477   70.0221   -1.8794 C.3     1  UNL1        0.1723
     36 C          21.0532   72.8338   -1.3300 C.3     1  UNL1        0.2706
     37 C          19.9340   71.1613   -2.6014 C.3     1  UNL1        0.1830
     38 H          23.2842   69.7373   -0.0002 H       1  UNL1        0.2105
     39 H          23.4818   71.6433    0.4839 H       1  UNL1        0.2106
     40 H          21.3598   68.2473   -2.3702 H       1  UNL1        0.2106
     41 O          18.2687   69.5105   -2.5415 O.co2   1  UNL1       -0.5466
     42 O          17.6877   71.5436   -3.3947 O.co2   1  UNL1       -0.5466
     43 C          18.5165   70.7948   -2.8994 C.2     1  UNL1        0.0799
@<TRIPOS>UNITY_ATOM_ATTR
2 1
charge -1
26 1
charge -1
41 1
charge -1
@<TRIPOS>BOND
     1     1     4    1
     2     1    24    1
     3     1     2    1
     4     1     3    2
     5    25    28    1
     6    25    24    1
     7    25    26    1
     8    25    27    2
     9     6    11    1
    10     6    12    1
    11    29    36    1
    12    29    37    1
    13     7     9    1
    14     7    13    1
    15     8    10    1
    16     8    14    1
    17     4     5    1
    18    28    36    1
    19    30    33    1
    20    30    38    1
    21    31    34    1
    22    31    39    1
    23    32    35    1
    24    32    40    1
    25    41    43   ar
    26    15    19    2
    27    42    43   ar
    28    16    22    2
    29    17    12    1
    30    17    19   ar
    31    17    20   ar
    32    18    19   ar
    33    18    22   ar
    34    18    23    1
    35     9    10    1
    36     9    11    1
    37    10    12    1
    38    11     5    1
    39    33    34    1
    40    33    35    1
    41    34    36    1
    42    35    37    1
    43    37    43    1
    44    20    21   ar
    45    21    22   ar
@<TRIPOS>MOLECULE
*****
 43 45 0 0 0
SMALL
GASTEIGER

@<TRIPOS>ATOM
      1 P          21.6452   73.0538   -6.0949 P.3     1  UNL1        0.2189
      2 O          21.3665   74.5351   -5.5058 O.co2   1  UNL1       -0.4371
      3 O          22.8405   72.9448   -6.9956 O.2     1  UNL1       -0.5170
      4 O          20.2299   72.6237   -6.7504 O.3     1  UNL1       -0.3112
      5 C          19.7264   71.3279   -6.4819 C.3     1  UNL1        0.1811
      6 O          17.4878   71.0685   -7.3180 O.3     1  UNL1       -0.3308
      7 O          18.7256   70.8879  -10.0432 O.3     1  UNL1       -0.3794
      8 O          17.8185   73.4585   -9.9700 O.3     1  UNL1       -0.3779
      9 C          19.1145   71.6862   -8.9252 C.3     1  UNL1        0.1713
     10 C          18.1511   72.8401   -8.7446 C.3     1  UNL1        0.1895
     11 C          18.8767   70.8717   -7.6610 C.3     1  UNL1        0.1764
     12 C          16.9609   72.1580   -8.0918 C.3     1  UNL1        0.2383
     13 H          18.8685   71.3874  -10.8629 H       1  UNL1        0.2105
     14 H          18.6090   73.8784  -10.3453 H       1  UNL1        0.2106
     15 O          16.1514   71.4992   -5.4675 O.2     1  UNL1       -0.2464
     16 O          14.1736   75.6161   -4.8484 O.2     1  UNL1       -0.2670
     17 N          16.2332   73.0389   -7.2228 N.ar    1  UNL1       -0.2551
     18 N          15.1662   73.5499   -5.1620 N.ar    1  UNL1       -0.2743
     19 C          15.8746   72.6105   -5.9228 C.ar    1  UNL1        0.3323
     20 C          15.8838   74.3111   -7.6592 C.ar    1  UNL1        0.0869
     21 C          15.2085   75.1954   -6.9226 C.ar    1  UNL1        0.0795
     22 C          14.7953   74.8264   -5.5527 C.ar    1  UNL1        0.2626
     23 H          14.9038   73.2737   -4.2542 H       1  UNL1        0.1734
     24 O          21.7208   72.1417   -4.7625 O.3     1  UNL1       -0.2703
     25 P          22.8193   72.0821   -3.5779 P.3     1  UNL1        0.2208
     26 O          23.9621   73.1122   -4.0811 O.co2   1  UNL1       -0.4371
     27 O          23.3225   70.7007   -3.2737 O.2     1  UNL1       -0.5170
     28 O          22.1182   72.8287   -2.3316 O.3     1  UNL1       -0.2858
     29 O          21.4138   71.1261   -0.8436 O.3     1  UNL1       -0.3226
     30 O          20.3148   74.5409    1.2056 O.3     1  UNL1       -0.3794
     31 O          19.8751   74.3366   -1.6753 O.3     1  UNL1       -0.3775
     32 O          22.6621   73.0367    2.0293 O.3     1  UNL1       -0.3792
     33 C          21.1135   73.7489    0.3265 C.3     1  UNL1        0.1718
     34 C          20.2548   73.2516   -0.8366 C.3     1  UNL1        0.1968
     35 C          21.6645   72.5655    1.1253 C.3     1  UNL1        0.1723
     36 C          21.0110   72.2175   -1.6719 C.3     1  UNL1        0.2706
     37 C          22.2917   71.5187    0.2091 C.3     1  UNL1        0.1830
     38 H          19.9538   75.2991    0.7198 H       1  UNL1        0.2105
     39 H          19.3950   74.9967   -1.1517 H       1  UNL1        0.2106
     40 H          22.2759   73.7038    2.6180 H       1  UNL1        0.2106
     41 O          21.7106   69.2622    0.4773 O.co2   1  UNL1       -0.5466
     42 O          23.3367   70.0873    1.8463 O.co2   1  UNL1       -0.5466
     43 C          22.5248   70.2401    0.9460 C.2     1  UNL1        0.0799
@<TRIPOS>UNITY_ATOM_ATTR
2 1
charge -1
26 1
charge -1
41 1
charge -1
@<TRIPOS>BOND
     1     1     4    1
     2     1    24    1
     3     1     2    1
     4     1     3    2
     5    25    28    1
     6    25    24    1
     7    25    26    1
     8    25    27    2
     9     6    11    1
    10     6    12    1
    11    29    36    1
    12    29    37    1
    13     7     9    1
    14     7    13    1
    15     8    10    1
    16     8    14    1
    17     4     5    1
    18    28    36    1
    19    30    33    1
    20    30    38    1
    21    31    34    1
    22    31    39    1
    23    32    35    1
    24    32    40    1
    25    41    43   ar
    26    15    19    2
    27    42    43   ar
    28    16    22    2
    29    17    12    1
    30    17    19   ar
    31    17    20   ar
    32    18    19   ar
    33    18    22   ar
    34    18    23    1
    35     9    10    1
    36     9    11    1
    37    10    12    1
    38    11     5    1
    39    33    34    1
    40    33    35    1
    41    34    36    1
    42    35    37    1
    43    37    43    1
    44    20    21   ar
    45    21    22   ar
@<TRIPOS>MOLECULE
*****
 43 45 0 0 0
SMALL
GASTEIGER

@<TRIPOS>ATOM
      1 P          22.0055   70.7779   -2.5778 P.3     1  UNL1        0.2189
      2 O          23.4865   70.5592   -3.1923 O.co2   1  UNL1       -0.4371
      3 O          21.3795   72.1054   -2.8904 O.2     1  UNL1       -0.5170
      4 O          22.1828   70.4374   -1.0060 O.3     1  UNL1       -0.3112
      5 C          22.7493   71.4217   -0.1607 C.3     1  UNL1        0.1811
      6 O          21.3667   73.2120    0.6521 O.3     1  UNL1       -0.3308
      7 O          22.5551   74.8765   -1.5408 O.3     1  UNL1       -0.3794
      8 O          23.9567   75.6911    0.6519 O.3     1  UNL1       -0.3779
      9 C          23.1670   73.8628   -0.7430 C.3     1  UNL1        0.1713
     10 C          23.4270   74.3819    0.6553 C.3     1  UNL1        0.1895
     11 C          22.1322   72.7745   -0.4915 C.3     1  UNL1        0.1764
     12 C          22.0438   74.3124    1.2798 C.3     1  UNL1        0.2383
     13 H          23.1971   75.5831   -1.7147 H       1  UNL1        0.2105
     14 H          24.8377   75.6824    0.2447 H       1  UNL1        0.2106
     15 O          20.8999   72.0786    2.5752 O.2     1  UNL1       -0.2464
     16 O          22.2934   73.5383    6.7191 O.2     1  UNL1       -0.2670
     17 N          22.0930   74.0837    2.6962 N.ar    1  UNL1       -0.2551
     18 N          21.5942   72.8082    4.6380 N.ar    1  UNL1       -0.2743
     19 C          21.4864   72.9298    3.2463 C.ar    1  UNL1        0.3323
     20 C          22.7374   74.9950    3.5239 C.ar    1  UNL1        0.0869
     21 C          22.8320   74.8655    4.8487 C.ar    1  UNL1        0.0795
     22 C          22.2243   73.6882    5.5029 C.ar    1  UNL1        0.2626
     23 H          21.1778   72.0139    5.0442 H       1  UNL1        0.1734
     24 O          21.1884   69.5000   -3.1366 O.3     1  UNL1       -0.2703
     25 P          19.6371   69.3346   -3.5606 P.3     1  UNL1        0.2208
     26 O          18.8839   70.4364   -2.6446 O.co2   1  UNL1       -0.4371
     27 O          19.1039   67.9389   -3.4132 O.2     1  UNL1       -0.5170
     28 O          19.5569   69.9272   -5.0589 O.3     1  UNL1       -0.2858
     29 O          19.9606   72.2242   -5.4712 O.3     1  UNL1       -0.3226
     30 O          17.9645   71.0916   -8.9064 O.3     1  UNL1       -0.3794
     31 O          17.0732   70.1375   -6.2930 O.3     1  UNL1       -0.3775
     32 O          20.8415   71.5052   -8.9597 O.3     1  UNL1       -0.3792
     33 C          18.8247   70.9152   -7.7809 C.3     1  UNL1        0.1718
     34 C          18.0394   71.1629   -6.4927 C.3     1  UNL1        0.1968
     35 C          19.9755   71.9165   -7.9036 C.3     1  UNL1        0.1723
     36 C          18.9736   71.2094   -5.2828 C.3     1  UNL1        0.2706
     37 C          20.7846   71.9962   -6.6123 C.3     1  UNL1        0.1830
     38 H          17.2254   70.4656   -8.8500 H       1  UNL1        0.2105
     39 H          16.4772   70.1022   -7.0571 H       1  UNL1        0.2106
     40 H          20.3386   71.4503   -9.7873 H       1  UNL1        0.2106
     41 O          22.7737   72.9749   -5.8460 O.co2   1  UNL1       -0.5466
     42 O          21.4714   74.2217   -7.2420 O.co2   1  UNL1       -0.5466
     43 C          21.6825   73.1904   -6.6218 C.2     1  UNL1        0.0799
@<TRIPOS>UNITY_ATOM_ATTR
2 1
charge -1
26 1
charge -1
41 1
charge -1
@<TRIPOS>BOND
     1     1     4    1
     2     1    24    1
     3     1     2    1
     4     1     3    2
     5    25    28    1
     6    25    24    1
     7    25    26    1
     8    25    27    2
     9     6    11    1
    10     6    12    1
    11    29    36    1
    12    29    37    1
    13     7     9    1
    14     7    13    1
    15     8    10    1
    16     8    14    1
    17     4     5    1
    18    28    36    1
    19    30    33    1
    20    30    38    1
    21    31    34    1
    22    31    39    1
    23    32    35    1
    24    32    40    1
    25    41    43   ar
    26    15    19    2
    27    42    43   ar
    28    16    22    2
    29    17    12    1
    30    17    19   ar
    31    17    20   ar
    32    18    19   ar
    33    18    22   ar
    34    18    23    1
    35     9    10    1
    36     9    11    1
    37    10    12    1
    38    11     5    1
    39    33    34    1
    40    33    35    1
    41    34    36    1
    42    35    37    1
    43    37    43    1
    44    20    21   ar
    45    21    22   ar
@<TRIPOS>MOLECULE
*****
 43 45 0 0 0
SMALL
GASTEIGER

@<TRIPOS>ATOM
      1 P          22.2219   73.3507   -5.3103 P.3     1  UNL1        0.2189
      2 O          22.3414   74.9137   -5.7120 O.co2   1  UNL1       -0.4371
      3 O          23.4783   72.7392   -4.7631 O.2     1  UNL1       -0.5170
      4 O          21.6224   72.6523   -6.6410 O.3     1  UNL1       -0.3112
      5 C          20.7480   73.4032   -7.4633 C.3     1  UNL1        0.1811
      6 O          19.9614   71.1675   -7.8640 O.3     1  UNL1       -0.3308
      7 O          18.3868   72.3281  -10.1367 O.3     1  UNL1       -0.3794
      8 O          16.5032   72.0581   -8.1834 O.3     1  UNL1       -0.3779
      9 C          18.6834   72.8952   -8.8603 C.3     1  UNL1        0.1713
     10 C          17.8469   72.2336   -7.7857 C.3     1  UNL1        0.1895
     11 C          20.0933   72.4699   -8.4736 C.3     1  UNL1        0.1764
     12 C          18.5748   70.9151   -7.5865 C.3     1  UNL1        0.2383
     13 H          17.4906   72.5860  -10.4051 H       1  UNL1        0.2105
     14 H          16.0836   72.9259   -8.2967 H       1  UNL1        0.2106
     15 O          16.2400   69.7188   -6.5405 O.2     1  UNL1       -0.2464
     16 O          18.2092   69.0416   -2.4287 O.2     1  UNL1       -0.2670
     17 N          18.4499   70.4173   -6.2458 N.ar    1  UNL1       -0.2551
     18 N          17.2227   69.3835   -4.4933 N.ar    1  UNL1       -0.2743
     19 C          17.2331   69.8342   -5.8199 C.ar    1  UNL1        0.3323
     20 C          19.5247   70.5075   -5.3696 C.ar    1  UNL1        0.0869
     21 C          19.4997   70.0733   -4.1080 C.ar    1  UNL1        0.0795
     22 C          18.2658   69.4519   -3.5839 C.ar    1  UNL1        0.2626
     23 H          16.3857   68.9757   -4.1733 H       1  UNL1        0.1734
     24 O          20.9658   73.3325   -4.2931 O.3     1  UNL1       -0.2703
     25 P          20.7991   73.9333   -2.8015 P.3     1  UNL1        0.2208
     26 O          19.2032   74.1733   -2.6756 O.co2   1  UNL1       -0.4371
     27 O          21.6311   75.1538   -2.5327 O.2     1  UNL1       -0.5170
     28 O          21.1020   72.6877   -1.8222 O.3     1  UNL1       -0.2858
     29 O          22.8790   73.2581   -0.3641 O.3     1  UNL1       -0.3226
     30 O          22.0971   69.3573    0.7494 O.3     1  UNL1       -0.3794
     31 O          22.1271   70.1142   -2.0720 O.3     1  UNL1       -0.3775
     32 O          21.2128   71.5593    2.4287 O.3     1  UNL1       -0.3792
     33 C          21.7811   70.6627    0.2658 C.3     1  UNL1        0.1718
     34 C          22.5789   70.9437   -1.0078 C.3     1  UNL1        0.1968
     35 C          22.1464   71.6723    1.3563 C.3     1  UNL1        0.1723
     36 C          22.4436   72.4084   -1.4261 C.3     1  UNL1        0.2706
     37 C          22.1094   73.1027    0.8262 C.3     1  UNL1        0.1830
     38 H          21.8734   68.6987    0.0730 H       1  UNL1        0.2105
     39 H          22.2099   69.1833   -1.8133 H       1  UNL1        0.2106
     40 H          21.2263   70.6534    2.7751 H       1  UNL1        0.2106
     41 O          22.1054   74.0780    2.9593 O.co2   1  UNL1       -0.5466
     42 O          23.7853   74.6842    1.5416 O.co2   1  UNL1       -0.5466
     43 C          22.7752   74.0396    1.7808 C.2     1  UNL1        0.0799
@<TRIPOS>UNITY_ATOM_ATTR
2 1
charge -1
26 1
charge -1
41 1
charge -1
@<TRIPOS>BOND
     1     1     4    1
     2     1    24    1
     3     1     2    1
     4     1     3    2
     5    25    28    1
     6    25    24    1
     7    25    26    1
     8    25    27    2
     9     6    11    1
    10     6    12    1
    11    29    36    1
    12    29    37    1
    13     7     9    1
    14     7    13    1
    15     8    10    1
    16     8    14    1
    17     4     5    1
    18    28    36    1
    19    30    33    1
    20    30    38    1
    21    31    34    1
    22    31    39    1
    23    32    35    1
    24    32    40    1
    25    41    43   ar
    26    15    19    2
    27    42    43   ar
    28    16    22    2
    29    17    12    1
    30    17    19   ar
    31    17    20   ar
    32    18    19   ar
    33    18    22   ar
    34    18    23    1
    35     9    10    1
    36     9    11    1
    37    10    12    1
    38    11     5    1
    39    33    34    1
    40    33    35    1
    41    34    36    1
    42    35    37    1
    43    37    43    1
    44    20    21   ar
    45    21    22   ar
@<TRIPOS>MOLECULE
*****
 43 45 0 0 0
SMALL
GASTEIGER

@<TRIPOS>ATOM
      1 P          22.4236   75.1300   -7.6597 P.3     1  UNL1        0.2189
      2 O          22.7853   74.4078   -6.2574 O.co2   1  UNL1       -0.4371
      3 O          22.0279   76.5729   -7.5456 O.2     1  UNL1       -0.5170
      4 O          21.3233   74.1504   -8.3287 O.3     1  UNL1       -0.3112
      5 C          21.2500   72.8095   -7.8802 C.3     1  UNL1        0.1811
      6 O          19.9622   70.7980   -8.1505 O.3     1  UNL1       -0.3308
      7 O          18.5440   72.2262  -10.3732 O.3     1  UNL1       -0.3794
      8 O          16.7755   72.4333   -8.3079 O.3     1  UNL1       -0.3779
      9 C          19.0397   72.7434   -9.1382 C.3     1  UNL1        0.1713
     10 C          18.1471   72.3127   -7.9936 C.3     1  UNL1        0.1895
     11 C          20.3414   72.0224   -8.8157 C.3     1  UNL1        0.1764
     12 C          18.5747   70.8698   -7.7859 C.3     1  UNL1        0.2383
     13 H          17.7124   72.6719  -10.6002 H       1  UNL1        0.2105
     14 H          16.5530   73.3701   -8.4303 H       1  UNL1        0.2106
     15 O          16.1927   69.8198   -6.6903 O.2     1  UNL1       -0.2464
     16 O          18.1255   69.2749   -2.5417 O.2     1  UNL1       -0.2670
     17 N          18.4277   70.4456   -6.4223 N.ar    1  UNL1       -0.2551
     18 N          17.1574   69.5503   -4.6248 N.ar    1  UNL1       -0.2743
     19 C          17.1881   69.9327   -5.9724 C.ar    1  UNL1        0.3323
     20 C          19.5033   70.5379   -5.5474 C.ar    1  UNL1        0.0869
     21 C          19.4588   70.1694   -4.2657 C.ar    1  UNL1        0.0795
     22 C          18.2005   69.6238   -3.7159 C.ar    1  UNL1        0.2626
     23 H          16.3044   69.1921   -4.2881 H       1  UNL1        0.1734
     24 O          23.7416   74.8621   -8.5563 O.3     1  UNL1       -0.2703
     25 P          24.8354   75.8839   -9.1673 P.3     1  UNL1        0.2208
     26 O          26.1980   75.0101   -9.1678 O.co2   1  UNL1       -0.4371
     27 O          24.9377   77.1886   -8.4317 O.2     1  UNL1       -0.5170
     28 O          24.4402   76.0229  -10.7252 O.3     1  UNL1       -0.2858
     29 O          25.1608   74.6838  -12.5410 O.3     1  UNL1       -0.3226
     30 O          24.5045   78.3210  -14.3871 O.3     1  UNL1       -0.3794
     31 O          25.8147   78.1992  -11.7789 O.3     1  UNL1       -0.3775
     32 O          22.5982   76.1514  -14.7185 O.3     1  UNL1       -0.3792
     33 C          24.2837   77.2888  -13.4260 C.3     1  UNL1        0.1718
     34 C          25.5562   77.0714  -12.6070 C.3     1  UNL1        0.1968
     35 C          23.9121   76.0108  -14.1815 C.3     1  UNL1        0.1723
     36 C          25.4351   75.8256  -11.7282 C.3     1  UNL1        0.2706
     37 C          23.9355   74.7933  -13.2619 C.3     1  UNL1        0.1830
     38 H          24.7421   79.1431  -13.9301 H       1  UNL1        0.2105
     39 H          25.8924   78.9934  -12.3299 H       1  UNL1        0.2106
     40 H          22.5697   76.9230  -15.3056 H       1  UNL1        0.2106
     41 O          24.0833   72.4525  -13.2508 O.co2   1  UNL1       -0.5466
     42 O          23.7254   73.4625  -15.2634 O.co2   1  UNL1       -0.5466
     43 C          23.8991   73.5281  -14.0557 C.2     1  UNL1        0.0799
@<TRIPOS>UNITY_ATOM_ATTR
2 1
charge -1
26 1
charge -1
41 1
charge -1
@<TRIPOS>BOND
     1     1     4    1
     2     1    24    1
     3     1     2    1
     4     1     3    2
     5    25    28    1
     6    25    24    1
     7    25    26    1
     8    25    27    2
     9     6    11    1
    10     6    12    1
    11    29    36    1
    12    29    37    1
    13     7     9    1
    14     7    13    1
    15     8    10    1
    16     8    14    1
    17     4     5    1
    18    28    36    1
    19    30    33    1
    20    30    38    1
    21    31    34    1
    22    31    39    1
    23    32    35    1
    24    32    40    1
    25    41    43   ar
    26    15    19    2
    27    42    43   ar
    28    16    22    2
    29    17    12    1
    30    17    19   ar
    31    17    20   ar
    32    18    19   ar
    33    18    22   ar
    34    18    23    1
    35     9    10    1
    36     9    11    1
    37    10    12    1
    38    11     5    1
    39    33    34    1
    40    33    35    1
    41    34    36    1
    42    35    37    1
    43    37    43    1
    44    20    21   ar
    45    21    22   ar
@<TRIPOS>MOLECULE
*****
 43 45 0 0 0
SMALL
GASTEIGER

@<TRIPOS>ATOM
      1 P          20.3840   69.7644   -2.7487 P.3     1  UNL1        0.2189
      2 O          21.8727   69.9126   -3.3656 O.co2   1  UNL1       -0.4371
      3 O          19.6118   68.5736   -3.2361 O.2     1  UNL1       -0.5170
      4 O          19.7029   71.2054   -3.0271 O.3     1  UNL1       -0.3112
      5 C          20.2201   72.0069   -4.0734 C.3     1  UNL1        0.1811
      6 O          19.3363   73.4670   -5.7659 O.3     1  UNL1       -0.3308
      7 O          17.0457   73.9481   -3.8915 O.3     1  UNL1       -0.3794
      8 O          16.0009   72.1561   -5.6616 O.3     1  UNL1       -0.3779
      9 C          17.7875   72.7504   -4.1231 C.3     1  UNL1        0.1713
     10 C          17.3977   72.1413   -5.4533 C.3     1  UNL1        0.1895
     11 C          19.2405   73.1368   -4.3633 C.3     1  UNL1        0.1764
     12 C          18.1450   73.0261   -6.4365 C.3     1  UNL1        0.2383
     13 H          16.1139   73.7266   -3.7355 H       1  UNL1        0.2105
     14 H          15.5709   71.5778   -5.0115 H       1  UNL1        0.2106
     15 O          17.9793   74.1128   -9.0380 O.2     1  UNL1       -0.2464
     16 O          19.5923   70.2437  -10.9543 O.2     1  UNL1       -0.2670
     17 N          18.5151   72.3246   -7.6330 N.ar    1  UNL1       -0.2551
     18 N          18.7818   72.1844   -9.9900 N.ar    1  UNL1       -0.2743
     19 C          18.3934   72.9614   -8.8908 C.ar    1  UNL1        0.3323
     20 C          18.9937   71.0225   -7.5538 C.ar    1  UNL1        0.0869
     21 C          19.3601   70.2946   -8.6105 C.ar    1  UNL1        0.0795
     22 C          19.2631   70.8855   -9.9613 C.ar    1  UNL1        0.2626
     23 H          18.7041   72.6056  -10.8765 H       1  UNL1        0.1734
     24 O          20.6478   69.7892   -1.1541 O.3     1  UNL1       -0.2703
     25 P          21.9277   70.2809   -0.2975 P.3     1  UNL1        0.2208
     26 O          22.8829   70.9579   -1.4154 O.co2   1  UNL1       -0.4371
     27 O          22.5864   69.1954    0.5035 O.2     1  UNL1       -0.5170
     28 O          21.3824   71.5216    0.5775 O.3     1  UNL1       -0.2858
     29 O          23.0178   73.2322    0.6682 O.3     1  UNL1       -0.3226
     30 O          20.0604   74.7663    3.1113 O.3     1  UNL1       -0.3794
     31 O          20.7882   71.9410    3.2621 O.3     1  UNL1       -0.3775
     32 O          20.4203   75.8119    0.4227 O.3     1  UNL1       -0.3792
     33 C          20.5881   74.0145    2.0184 C.3     1  UNL1        0.1718
     34 C          21.5241   72.9283    2.5491 C.3     1  UNL1        0.1968
     35 C          21.3527   74.9775    1.1074 C.3     1  UNL1        0.1723
     36 C          22.2837   72.2541    1.4057 C.3     1  UNL1        0.2706
     37 C          22.1842   74.2242    0.0731 C.3     1  UNL1        0.1830
     38 H          19.5702   74.1749    3.7039 H       1  UNL1        0.2105
     39 H          20.3036   72.3619    3.9890 H       1  UNL1        0.2106
     40 H          19.8846   76.2969    1.0698 H       1  UNL1        0.2106
     41 O          22.6106   76.3525   -0.8156 O.co2   1  UNL1       -0.5466
     42 O          24.3153   74.8394   -0.8760 O.co2   1  UNL1       -0.5466
     43 C          23.1667   75.1374   -0.5848 C.2     1  UNL1        0.0799
@<TRIPOS>UNITY_ATOM_ATTR
2 1
charge -1
26 1
charge -1
41 1
charge -1
@<TRIPOS>BOND
     1     1     4    1
     2     1    24    1
     3     1     2    1
     4     1     3    2
     5    25    28    1
     6    25    24    1
     7    25    26    1
     8    25    27    2
     9     6    11    1
    10     6    12    1
    11    29    36    1
    12    29    37    1
    13     7     9    1
    14     7    13    1
    15     8    10    1
    16     8    14    1
    17     4     5    1
    18    28    36    1
    19    30    33    1
    20    30    38    1
    21    31    34    1
    22    31    39    1
    23    32    35    1
    24    32    40    1
    25    41    43   ar
    26    15    19    2
    27    42    43   ar
    28    16    22    2
    29    17    12    1
    30    17    19   ar
    31    17    20   ar
    32    18    19   ar
    33    18    22   ar
    34    18    23    1
    35     9    10    1
    36     9    11    1
    37    10    12    1
    38    11     5    1
    39    33    34    1
    40    33    35    1
    41    34    36    1
    42    35    37    1
    43    37    43    1
    44    20    21   ar
    45    21    22   ar
@<TRIPOS>MOLECULE
*****
 43 45 0 0 0
SMALL
GASTEIGER

@<TRIPOS>ATOM
      1 P          22.3098   73.0293   -4.0087 P.3     1  UNL1        0.2189
      2 O          23.8029   72.4172   -4.1301 O.co2   1  UNL1       -0.4371
      3 O          21.9628   73.5907   -2.6610 O.2     1  UNL1       -0.5170
      4 O          21.3559   71.8349   -4.5390 O.3     1  UNL1       -0.3112
      5 C          20.7147   71.0077   -3.5854 C.3     1  UNL1        0.1811
      6 O          18.8309   72.0169   -4.6857 O.3     1  UNL1       -0.3308
      7 O          17.1620   70.8728   -2.4728 O.3     1  UNL1       -0.3794
      8 O          16.7249   69.1204   -4.5159 O.3     1  UNL1       -0.3779
      9 C          18.3105   70.3205   -3.1166 C.3     1  UNL1        0.1713
     10 C          17.9482   69.8260   -4.5010 C.3     1  UNL1        0.1895
     11 C          19.2694   71.4618   -3.4268 C.3     1  UNL1        0.1764
     12 C          17.8858   71.1213   -5.2923 C.3     1  UNL1        0.2383
     13 H          16.5346   70.1623   -2.2648 H       1  UNL1        0.2105
     14 H          16.8163   68.3040   -3.9990 H       1  UNL1        0.2106
     15 O          16.0626   70.3677   -7.3133 O.2     1  UNL1       -0.2464
     16 O          19.3399   70.4464  -10.5532 O.2     1  UNL1       -0.2670
     17 N          18.2358   70.9378   -6.6724 N.ar    1  UNL1       -0.2551
     18 N          17.6969   70.4067   -8.9249 N.ar    1  UNL1       -0.2743
     19 C          17.2442   70.5582   -7.6076 C.ar    1  UNL1        0.3323
     20 C          19.5472   71.1348   -7.0875 C.ar    1  UNL1        0.0869
     21 C          19.9636   70.9868   -8.3466 C.ar    1  UNL1        0.0795
     22 C          18.9904   70.5908   -9.3857 C.ar    1  UNL1        0.2626
     23 H          17.0250   70.1408   -9.5936 H       1  UNL1        0.1734
     24 O          22.2572   74.1005   -5.2181 O.3     1  UNL1       -0.2703
     25 P          22.9861   75.5319   -5.4007 P.3     1  UNL1        0.2208
     26 O          24.3792   75.3425   -4.5984 O.co2   1  UNL1       -0.4371
     27 O          22.1649   76.7036   -4.9458 O.2     1  UNL1       -0.5170
     28 O          23.4145   75.5778   -6.9553 O.3     1  UNL1       -0.2858
     29 O          22.3044   76.5908   -8.7857 O.3     1  UNL1       -0.3226
     30 O          24.1640   73.3801  -10.6027 O.3     1  UNL1       -0.3794
     31 O          22.8625   73.0626   -8.0066 O.3     1  UNL1       -0.3775
     32 O          25.2333   76.0632  -10.9318 O.3     1  UNL1       -0.3792
     33 C          24.0151   74.4295   -9.6464 C.3     1  UNL1        0.1718
     34 C          22.7352   74.2091   -8.8397 C.3     1  UNL1        0.1968
     35 C          23.9432   75.7556  -10.4069 C.3     1  UNL1        0.1723
     36 C          22.4215   75.4258   -7.9680 C.3     1  UNL1        0.2706
     37 C          23.5025   76.8973   -9.4954 C.3     1  UNL1        0.1830
     38 H          24.2119   72.5273  -10.1424 H       1  UNL1        0.2105
     39 H          23.0619   72.2868   -8.5531 H       1  UNL1        0.2106
     40 H          25.5255   75.3442  -11.5136 H       1  UNL1        0.2106
     41 O          22.0740   78.7437   -9.7230 O.co2   1  UNL1       -0.5466
     42 O          23.6689   78.4584  -11.3275 O.co2   1  UNL1       -0.5466
     43 C          23.1196   78.0985  -10.2971 C.2     1  UNL1        0.0799
@<TRIPOS>UNITY_ATOM_ATTR
2 1
charge -1
26 1
charge -1
41 1
charge -1
@<TRIPOS>BOND
     1     1     4    1
     2     1    24    1
     3     1     2    1
     4     1     3    2
     5    25    28    1
     6    25    24    1
     7    25    26    1
     8    25    27    2
     9     6    11    1
    10     6    12    1
    11    29    36    1
    12    29    37    1
    13     7     9    1
    14     7    13    1
    15     8    10    1
    16     8    14    1
    17     4     5    1
    18    28    36    1
    19    30    33    1
    20    30    38    1
    21    31    34    1
    22    31    39    1
    23    32    35    1
    24    32    40    1
    25    41    43   ar
    26    15    19    2
    27    42    43   ar
    28    16    22    2
    29    17    12    1
    30    17    19   ar
    31    17    20   ar
    32    18    19   ar
    33    18    22   ar
    34    18    23    1
    35     9    10    1
    36     9    11    1
    37    10    12    1
    38    11     5    1
    39    33    34    1
    40    33    35    1
    41    34    36    1
    42    35    37    1
    43    37    43    1
    44    20    21   ar
    45    21    22   ar
@<TRIPOS>MOLECULE
*****
 43 45 0 0 0
SMALL
GASTEIGER

@<TRIPOS>ATOM
      1 P          22.4623   75.2837   -8.3197 P.3     1  UNL1        0.2189
      2 O          21.9620   75.3196   -6.7811 O.co2   1  UNL1       -0.4371
      3 O          21.9891   76.4285   -9.1666 O.2     1  UNL1       -0.5170
      4 O          22.0382   73.8086   -8.8318 O.3     1  UNL1       -0.3112
      5 C          21.1219   73.0604   -8.0540 C.3     1  UNL1        0.1811
      6 O          19.8877   71.0158   -8.3268 O.3     1  UNL1       -0.3308
      7 O          18.3945   72.4265  -10.5112 O.3     1  UNL1       -0.3794
      8 O          16.6536   72.5608   -8.4165 O.3     1  UNL1       -0.3779
      9 C          18.8947   72.9444   -9.2783 C.3     1  UNL1        0.1713
     10 C          18.0329   72.4761   -8.1249 C.3     1  UNL1        0.1895
     11 C          20.2214   72.2576   -8.9840 C.3     1  UNL1        0.1764
     12 C          18.5047   71.0439   -7.9399 C.3     1  UNL1        0.2383
     13 H          17.5471   72.8506  -10.7203 H       1  UNL1        0.2105
     14 H          16.4027   73.4920   -8.5250 H       1  UNL1        0.2106
     15 O          16.1476   69.9878   -6.7975 O.2     1  UNL1       -0.2464
     16 O          18.1852   69.3770   -2.7086 O.2     1  UNL1       -0.2670
     17 N          18.3914   70.6011   -6.5791 N.ar    1  UNL1       -0.2551
     18 N          17.1644   69.6855   -4.7618 N.ar    1  UNL1       -0.2743
     19 C          17.1617   70.0867   -6.1042 C.ar    1  UNL1        0.3323
     20 C          19.4898   70.6769   -5.7313 C.ar    1  UNL1        0.0869
     21 C          19.4771   70.2905   -4.4541 C.ar    1  UNL1        0.0795
     22 C          18.2311   69.7421   -3.8794 C.ar    1  UNL1        0.2626
     23 H          16.3190   69.3259   -4.4079 H       1  UNL1        0.1734
     24 O          24.0684   75.1708   -8.1766 O.3     1  UNL1       -0.2703
     25 P          25.2350   76.2633   -8.4194 P.3     1  UNL1        0.2208
     26 O          25.0235   77.3074   -7.2006 O.co2   1  UNL1       -0.4371
     27 O          25.2160   76.8920   -9.7826 O.2     1  UNL1       -0.5170
     28 O          26.6031   75.4883   -8.0587 O.3     1  UNL1       -0.2858
     29 O          28.4470   76.0959   -6.7022 O.3     1  UNL1       -0.3226
     30 O          30.2900   73.9526   -9.7151 O.3     1  UNL1       -0.3794
     31 O          28.1558   75.8477  -10.3381 O.3     1  UNL1       -0.3775
     32 O          29.9127   72.7551   -7.0931 O.3     1  UNL1       -0.3792
     33 C          29.2339   74.2947   -8.8176 C.3     1  UNL1        0.1718
     34 C          28.7938   75.7368   -9.0711 C.3     1  UNL1        0.1968
     35 C          29.7596   74.1421   -7.3885 C.3     1  UNL1        0.1723
     36 C          27.8292   76.2135   -7.9843 C.3     1  UNL1        0.2706
     37 C          28.7987   74.7538   -6.3731 C.3     1  UNL1        0.1830
     38 H          29.9791   74.0423  -10.6297 H       1  UNL1        0.2105
     39 H          28.7622   75.5466  -11.0324 H       1  UNL1        0.2106
     40 H          30.5219   72.3537   -7.7324 H       1  UNL1        0.2106
     41 O          29.3722   76.1765   -4.5987 O.co2   1  UNL1       -0.5466
     42 O          29.9967   73.9906   -4.4228 O.co2   1  UNL1       -0.5466
     43 C          29.4567   74.8969   -5.0394 C.2     1  UNL1        0.0799
@<TRIPOS>UNITY_ATOM_ATTR
2 1
charge -1
26 1
charge -1
41 1
charge -1
@<TRIPOS>BOND
     1     1     4    1
     2     1    24    1
     3     1     2    1
     4     1     3    2
     5    25    28    1
     6    25    24    1
     7    25    26    1
     8    25    27    2
     9     6    11    1
    10     6    12    1
    11    29    36    1
    12    29    37    1
    13     7     9    1
    14     7    13    1
    15     8    10    1
    16     8    14    1
    17     4     5    1
    18    28    36    1
    19    30    33    1
    20    30    38    1
    21    31    34    1
    22    31    39    1
    23    32    35    1
    24    32    40    1
    25    41    43   ar
    26    15    19    2
    27    42    43   ar
    28    16    22    2
    29    17    12    1
    30    17    19   ar
    31    17    20   ar
    32    18    19   ar
    33    18    22   ar
    34    18    23    1
    35     9    10    1
    36     9    11    1
    37    10    12    1
    38    11     5    1
    39    33    34    1
    40    33    35    1
    41    34    36    1
    42    35    37    1
    43    37    43    1
    44    20    21   ar
    45    21    22   ar
@<TRIPOS>MOLECULE
*****
 43 45 0 0 0
SMALL
GASTEIGER

@<TRIPOS>ATOM
      1 P          23.0417   72.2968   -3.4588 P.3     1  UNL1        0.2189
      2 O          23.3314   70.7149   -3.2782 O.co2   1  UNL1       -0.4371
      3 O          24.2147   73.1060   -3.9290 O.2     1  UNL1       -0.5170
      4 O          22.4065   72.7401   -2.0382 O.3     1  UNL1       -0.3112
      5 C          21.0591   72.4018   -1.7651 C.3     1  UNL1        0.1811
      6 O          19.7864   73.7120   -0.2026 O.3     1  UNL1       -0.3308
      7 O          20.1934   76.0111   -2.0841 O.3     1  UNL1       -0.3794
      8 O          22.0480   76.4933   -0.1440 O.3     1  UNL1       -0.3779
      9 C          21.0844   74.9458   -1.7530 C.3     1  UNL1        0.1713
     10 C          21.6588   75.1543   -0.3678 C.3     1  UNL1        0.1895
     11 C          20.2566   73.6814   -1.5676 C.3     1  UNL1        0.1764
     12 C          20.5037   74.7248    0.5206 C.3     1  UNL1        0.2383
     13 H          20.6994   76.8298   -2.2074 H       1  UNL1        0.2105
     14 H          22.7860   76.7182   -0.7329 H       1  UNL1        0.2106
     15 O          20.9929   76.2541    2.8440 O.2     1  UNL1       -0.2464
     16 O          22.2065   72.5243    5.2646 O.2     1  UNL1       -0.2670
     17 N          20.9482   74.1789    1.7717 N.ar    1  UNL1       -0.2551
     18 N          21.5978   74.3951    4.0471 N.ar    1  UNL1       -0.2743
     19 C          21.1645   75.0342    2.8780 C.ar    1  UNL1        0.3323
     20 C          21.1636   72.8116    1.8944 C.ar    1  UNL1        0.0869
     21 C          21.5766   72.2170    3.0154 C.ar    1  UNL1        0.0795
     22 C          21.8266   73.0393    4.2174 C.ar    1  UNL1        0.2626
     23 H          21.7571   74.9702    4.8302 H       1  UNL1        0.1734
     24 O          21.7658   72.3211   -4.4508 O.3     1  UNL1       -0.2703
     25 P          21.4231   73.2670   -5.7163 P.3     1  UNL1        0.2208
     26 O          22.6548   72.9900   -6.7294 O.co2   1  UNL1       -0.4371
     27 O          21.2226   74.7134   -5.3675 O.2     1  UNL1       -0.5170
     28 O          20.1519   72.5654   -6.4194 O.3     1  UNL1       -0.2858
     29 O          19.2322   70.3921   -6.2202 O.3     1  UNL1       -0.3226
     30 O          18.5856   71.2155  -10.2167 O.3     1  UNL1       -0.3794
     31 O          21.1187   71.9295   -8.9486 O.3     1  UNL1       -0.3775
     32 O          16.3810   71.3401   -8.3258 O.3     1  UNL1       -0.3792
     33 C          18.7300   71.5217   -8.8298 C.3     1  UNL1        0.1718
     34 C          20.1224   71.1043   -8.3559 C.3     1  UNL1        0.1968
     35 C          17.6534   70.7525   -8.0610 C.3     1  UNL1        0.1723
     36 C          20.2347   71.2031   -6.8339 C.3     1  UNL1        0.2706
     37 C          17.9062   70.7938   -6.5567 C.3     1  UNL1        0.1830
     38 H          19.2595   71.6932  -10.7254 H       1  UNL1        0.2105
     39 H          21.0530   71.8718   -9.9144 H       1  UNL1        0.2106
     40 H          16.2079   71.3203   -9.2800 H       1  UNL1        0.2106
     41 O          17.4529   69.6539   -4.5575 O.co2   1  UNL1       -0.5466
     42 O          16.1388   69.1637   -6.3552 O.co2   1  UNL1       -0.5466
     43 C          17.0604   69.7859   -5.8488 C.2     1  UNL1        0.0799
@<TRIPOS>UNITY_ATOM_ATTR
2 1
charge -1
26 1
charge -1
41 1
charge -1
@<TRIPOS>BOND
     1     1     4    1
     2     1    24    1
     3     1     2    1
     4     1     3    2
     5    25    28    1
     6    25    24    1
     7    25    26    1
     8    25    27    2
     9     6    11    1
    10     6    12    1
    11    29    36    1
    12    29    37    1
    13     7     9    1
    14     7    13    1
    15     8    10    1
    16     8    14    1
    17     4     5    1
    18    28    36    1
    19    30    33    1
    20    30    38    1
    21    31    34    1
    22    31    39    1
    23    32    35    1
    24    32    40    1
    25    41    43   ar
    26    15    19    2
    27    42    43   ar
    28    16    22    2
    29    17    12    1
    30    17    19   ar
    31    17    20   ar
    32    18    19   ar
    33    18    22   ar
    34    18    23    1
    35     9    10    1
    36     9    11    1
    37    10    12    1
    38    11     5    1
    39    33    34    1
    40    33    35    1
    41    34    36    1
    42    35    37    1
    43    37    43    1
    44    20    21   ar
    45    21    22   ar
@<TRIPOS>MOLECULE
*****
 43 45 0 0 0
SMALL
GASTEIGER

@<TRIPOS>ATOM
      1 P          21.8859   73.0766   -4.5662 P.3     1  UNL1        0.2189
      2 O          21.6338   74.1615   -3.3922 O.co2   1  UNL1       -0.4371
      3 O          23.3149   72.9350   -5.0018 O.2     1  UNL1       -0.5170
      4 O          20.8381   73.5046   -5.7224 O.3     1  UNL1       -0.3112
      5 C          21.0880   73.0838   -7.0509 C.3     1  UNL1        0.1811
      6 O          19.0506   71.8162   -6.9097 O.3     1  UNL1       -0.3308
      7 O          20.3708   69.8417   -8.7400 O.3     1  UNL1       -0.3794
      8 O          18.7488   71.2326  -10.4343 O.3     1  UNL1       -0.3779
      9 C          20.4740   71.2656   -8.7212 C.3     1  UNL1        0.1713
     10 C          19.2097   71.8901   -9.2725 C.3     1  UNL1        0.1895
     11 C          20.4461   71.7195   -7.2681 C.3     1  UNL1        0.1764
     12 C          18.2519   71.7492   -8.1018 C.3     1  UNL1        0.2383
     13 H          20.3865   69.5282   -9.6582 H       1  UNL1        0.2105
     14 H          19.3928   71.3520  -11.1504 H       1  UNL1        0.2106
     15 O          15.8834   71.6664   -6.5657 O.2     1  UNL1       -0.2464
     16 O          14.5626   75.8275   -8.0439 O.2     1  UNL1       -0.2670
     17 N          17.2716   72.7972   -8.0666 N.ar    1  UNL1       -0.2551
     18 N          15.2273   73.7385   -7.3042 N.ar    1  UNL1       -0.2743
     19 C          16.1163   72.6564   -7.2618 C.ar    1  UNL1        0.3323
     20 C          17.4598   73.9486   -8.8215 C.ar    1  UNL1        0.0869
     21 C          16.6035   74.9717   -8.8515 C.ar    1  UNL1        0.0795
     22 C          15.3708   74.9039   -8.0396 C.ar    1  UNL1        0.2626
     23 H          14.4146   73.6626   -6.7536 H       1  UNL1        0.1734
     24 O          21.2295   71.7287   -3.9618 O.3     1  UNL1       -0.2703
     25 P          21.7768   70.6858   -2.8544 P.3     1  UNL1        0.2208
     26 O          23.3723   70.6604   -3.1268 O.co2   1  UNL1       -0.4371
     27 O          21.1199   69.3367   -2.9013 O.2     1  UNL1       -0.5170
     28 O          21.6162   71.4602   -1.4483 O.3     1  UNL1       -0.2858
     29 O          23.2829   72.8343   -0.4773 O.3     1  UNL1       -0.3226
     30 O          21.0727   71.7273    2.8329 O.3     1  UNL1       -0.3794
     31 O          21.7153   69.7718    0.7598 O.3     1  UNL1       -0.3775
     32 O          20.7973   74.3993    1.7214 O.3     1  UNL1       -0.3792
     33 C          21.2888   72.0551    1.4603 C.3     1  UNL1        0.1718
     34 C          22.2877   71.0714    0.8504 C.3     1  UNL1        0.1968
     35 C          21.8394   73.4815    1.3958 C.3     1  UNL1        0.1723
     36 C          22.7186   71.5242   -0.5454 C.3     1  UNL1        0.2706
     37 C          22.3640   73.8136    0.0019 C.3     1  UNL1        0.1830
     38 H          20.7227   70.8248    2.8987 H       1  UNL1        0.2105
     39 H          21.4394   69.4784    1.6419 H       1  UNL1        0.2106
     40 H          20.4545   74.1987    2.6063 H       1  UNL1        0.2106
     41 O          24.0351   75.0966   -1.0291 O.co2   1  UNL1       -0.5466
     42 O          23.1090   75.9344    0.8787 O.co2   1  UNL1       -0.5466
     43 C          23.1862   75.0608    0.0278 C.2     1  UNL1        0.0799
@<TRIPOS>UNITY_ATOM_ATTR
2 1
charge -1
26 1
charge -1
41 1
charge -1
@<TRIPOS>BOND
     1     1     4    1
     2     1    24    1
     3     1     2    1
     4     1     3    2
     5    25    28    1
     6    25    24    1
     7    25    26    1
     8    25    27    2
     9     6    11    1
    10     6    12    1
    11    29    36    1
    12    29    37    1
    13     7     9    1
    14     7    13    1
    15     8    10    1
    16     8    14    1
    17     4     5    1
    18    28    36    1
    19    30    33    1
    20    30    38    1
    21    31    34    1
    22    31    39    1
    23    32    35    1
    24    32    40    1
    25    41    43   ar
    26    15    19    2
    27    42    43   ar
    28    16    22    2
    29    17    12    1
    30    17    19   ar
    31    17    20   ar
    32    18    19   ar
    33    18    22   ar
    34    18    23    1
    35     9    10    1
    36     9    11    1
    37    10    12    1
    38    11     5    1
    39    33    34    1
    40    33    35    1
    41    34    36    1
    42    35    37    1
    43    37    43    1
    44    20    21   ar
    45    21    22   ar
@<TRIPOS>MOLECULE
*****
 43 45 0 0 0
SMALL
GASTEIGER

@<TRIPOS>ATOM
      1 P          22.0093   73.1359   -5.0241 P.3     1  UNL1        0.2189
      2 O          21.1564   74.5060   -5.1448 O.co2   1  UNL1       -0.4371
      3 O          23.4992   73.3124   -5.0541 O.2     1  UNL1       -0.5170
      4 O          21.3904   72.1898   -6.1816 O.3     1  UNL1       -0.3112
      5 C          21.2491   72.7217   -7.4860 C.3     1  UNL1        0.1811
      6 O          19.6936   70.8910   -7.4043 O.3     1  UNL1       -0.3308
      7 O          18.8914   71.6920  -10.1803 O.3     1  UNL1       -0.3794
      8 O          16.8925   72.7470   -8.6546 O.3     1  UNL1       -0.3779
      9 C          19.2755   72.5142   -9.0780 C.3     1  UNL1        0.1713
     10 C          18.1601   72.5754   -8.0560 C.3     1  UNL1        0.1895
     11 C          20.3717   71.7882   -8.3101 C.3     1  UNL1        0.1764
     12 C          18.2996   71.2343   -7.3562 C.3     1  UNL1        0.2383
     13 H          18.1917   72.1351  -10.6861 H       1  UNL1        0.2105
     14 H          16.8538   73.6153   -9.0864 H       1  UNL1        0.2106
     15 O          16.6896   69.2778   -6.1085 O.2     1  UNL1       -0.2464
     16 O          16.7446   71.5333   -2.0893 O.2     1  UNL1       -0.2670
     17 N          17.8783   71.2854   -5.9848 N.ar    1  UNL1       -0.2551
     18 N          16.7177   70.4036   -4.1082 N.ar    1  UNL1       -0.2743
     19 C          17.0702   70.2514   -5.4556 C.ar    1  UNL1        0.3323
     20 C          18.2663   72.3491   -5.1792 C.ar    1  UNL1        0.0869
     21 C          17.9225   72.4803   -3.8965 C.ar    1  UNL1        0.0795
     22 C          17.0785   71.4436   -3.2669 C.ar    1  UNL1        0.2626
     23 H          16.1536   69.6972   -3.7181 H       1  UNL1        0.1734
     24 O          21.4372   72.4708   -3.6665 O.3     1  UNL1       -0.2703
     25 P          21.6152   70.9844   -3.0560 P.3     1  UNL1        0.2208
     26 O          23.1893   70.6793   -3.2784 O.co2   1  UNL1       -0.4371
     27 O          20.6961   69.9589   -3.6538 O.2     1  UNL1       -0.5170
     28 O          21.4588   71.1754   -1.4618 O.3     1  UNL1       -0.2858
     29 O          23.1497   72.6442   -0.6919 O.3     1  UNL1       -0.3226
     30 O          21.2222   71.6627    2.8280 O.3     1  UNL1       -0.3794
     31 O          21.7705   69.6140    0.8188 O.3     1  UNL1       -0.3775
     32 O          20.7853   74.2615    1.6007 O.3     1  UNL1       -0.3792
     33 C          21.3272   71.9202    1.4277 C.3     1  UNL1        0.1718
     34 C          22.3082   70.9312    0.7976 C.3     1  UNL1        0.1968
     35 C          21.8282   73.3549    1.2471 C.3     1  UNL1        0.1723
     36 C          22.6219   71.3179   -0.6484 C.3     1  UNL1        0.2706
     37 C          22.2391   73.6237   -0.1977 C.3     1  UNL1        0.1830
     38 H          20.9055   70.7562    2.9673 H       1  UNL1        0.2105
     39 H          21.5688   69.3622    1.7333 H       1  UNL1        0.2106
     40 H          20.5144   74.1008    2.5181 H       1  UNL1        0.2106
     41 O          24.3536   74.6319   -0.3156 O.co2   1  UNL1       -0.5466
     42 O          22.5392   76.0121   -0.3616 O.co2   1  UNL1       -0.5466
     43 C          23.0227   74.8918   -0.2991 C.2     1  UNL1        0.0799
@<TRIPOS>UNITY_ATOM_ATTR
2 1
charge -1
26 1
charge -1
41 1
charge -1
@<TRIPOS>BOND
     1     1     4    1
     2     1    24    1
     3     1     2    1
     4     1     3    2
     5    25    28    1
     6    25    24    1
     7    25    26    1
     8    25    27    2
     9     6    11    1
    10     6    12    1
    11    29    36    1
    12    29    37    1
    13     7     9    1
    14     7    13    1
    15     8    10    1
    16     8    14    1
    17     4     5    1
    18    28    36    1
    19    30    33    1
    20    30    38    1
    21    31    34    1
    22    31    39    1
    23    32    35    1
    24    32    40    1
    25    41    43   ar
    26    15    19    2
    27    42    43   ar
    28    16    22    2
    29    17    12    1
    30    17    19   ar
    31    17    20   ar
    32    18    19   ar
    33    18    22   ar
    34    18    23    1
    35     9    10    1
    36     9    11    1
    37    10    12    1
    38    11     5    1
    39    33    34    1
    40    33    35    1
    41    34    36    1
    42    35    37    1
    43    37    43    1
    44    20    21   ar
    45    21    22   ar
@<TRIPOS>MOLECULE
*****
 43 45 0 0 0
SMALL
GASTEIGER

@<TRIPOS>ATOM
      1 P          19.3969   71.1960   -4.0195 P.3     1  UNL1        0.2189
      2 O          19.2294   69.6004   -4.2313 O.co2   1  UNL1       -0.4371
      3 O          18.3719   71.8272   -3.1234 O.2     1  UNL1       -0.5170
      4 O          19.4699   71.7823   -5.5257 O.3     1  UNL1       -0.3112
      5 C          18.5078   71.3461   -6.4684 C.3     1  UNL1        0.1811
      6 O          18.6624   73.6710   -7.0588 O.3     1  UNL1       -0.3308
      7 O          16.1246   73.2564   -8.6012 O.3     1  UNL1       -0.3794
      8 O          18.0261   73.1942  -10.5548 O.3     1  UNL1       -0.3779
      9 C          17.2242   72.3652   -8.4142 C.3     1  UNL1        0.1713
     10 C          18.4060   72.8083   -9.2505 C.3     1  UNL1        0.1895
     11 C          17.7475   72.5555   -6.9971 C.3     1  UNL1        0.1764
     12 C          18.9535   73.9665   -8.4340 C.3     1  UNL1        0.2383
     13 H          15.7733   73.1531   -9.4999 H       1  UNL1        0.2105
     14 H          17.6847   72.4223  -11.0338 H       1  UNL1        0.2106
     15 O          20.7546   71.8360   -8.8739 O.2     1  UNL1       -0.2464
     16 O          24.3759   74.6842   -9.0090 O.2     1  UNL1       -0.2670
     17 N          20.3722   74.1230   -8.5878 N.ar    1  UNL1       -0.2551
     18 N          22.5566   73.2565   -8.9398 N.ar    1  UNL1       -0.2743
     19 C          21.1882   72.9876   -8.8048 C.ar    1  UNL1        0.3323
     20 C          20.9412   75.3892   -8.5249 C.ar    1  UNL1        0.0869
     21 C          22.2473   75.6298   -8.6555 C.ar    1  UNL1        0.0795
     22 C          23.1693   74.4979   -8.8840 C.ar    1  UNL1        0.2626
     23 H          23.1451   72.4815   -9.0895 H       1  UNL1        0.1734
     24 O          20.9216   71.3352   -3.5010 O.3     1  UNL1       -0.2703
     25 P          21.6687   70.6967   -2.2174 P.3     1  UNL1        0.2208
     26 O          23.2041   70.5623   -2.7121 O.co2   1  UNL1       -0.4371
     27 O          21.0624   69.4138   -1.7271 O.2     1  UNL1       -0.5170
     28 O          21.6950   71.8847   -1.1263 O.3     1  UNL1       -0.2858
     29 O          23.2317   73.3165   -0.0320 O.3     1  UNL1       -0.3226
     30 O          21.0818   71.7992    3.1529 O.3     1  UNL1       -0.3794
     31 O          21.9071   70.0561    0.9587 O.3     1  UNL1       -0.3775
     32 O          20.6003   74.5128    2.2279 O.3     1  UNL1       -0.3792
     33 C          21.2861   72.2410    1.8109 C.3     1  UNL1        0.1718
     34 C          22.3695   71.3880    1.1506 C.3     1  UNL1        0.1968
     35 C          21.7182   73.7084    1.8567 C.3     1  UNL1        0.1723
     36 C          22.7779   71.9732   -0.2020 C.3     1  UNL1        0.2706
     37 C          22.2298   74.1811    0.4990 C.3     1  UNL1        0.1830
     38 H          20.8065   70.8689    3.1489 H       1  UNL1        0.2105
     39 H          21.6460   69.6786    1.8129 H       1  UNL1        0.2106
     40 H          20.2650   74.2221    3.0904 H       1  UNL1        0.2106
     41 O          23.9421   75.3973    1.5434 O.co2   1  UNL1       -0.5466
     42 O          22.6798   76.4974   -0.0044 O.co2   1  UNL1       -0.5466
     43 C          22.9463   75.4859    0.6271 C.2     1  UNL1        0.0799
@<TRIPOS>UNITY_ATOM_ATTR
2 1
charge -1
26 1
charge -1
41 1
charge -1
@<TRIPOS>BOND
     1     1     4    1
     2     1    24    1
     3     1     2    1
     4     1     3    2
     5    25    28    1
     6    25    24    1
     7    25    26    1
     8    25    27    2
     9     6    11    1
    10     6    12    1
    11    29    36    1
    12    29    37    1
    13     7     9    1
    14     7    13    1
    15     8    10    1
    16     8    14    1
    17     4     5    1
    18    28    36    1
    19    30    33    1
    20    30    38    1
    21    31    34    1
    22    31    39    1
    23    32    35    1
    24    32    40    1
    25    41    43   ar
    26    15    19    2
    27    42    43   ar
    28    16    22    2
    29    17    12    1
    30    17    19   ar
    31    17    20   ar
    32    18    19   ar
    33    18    22   ar
    34    18    23    1
    35     9    10    1
    36     9    11    1
    37    10    12    1
    38    11     5    1
    39    33    34    1
    40    33    35    1
    41    34    36    1
    42    35    37    1
    43    37    43    1
    44    20    21   ar
    45    21    22   ar
