@<TRIPOS>MOLECULE
GDU
 43 45 0 0 0
SMALL
GASTEIGER

@<TRIPOS>ATOM
      1 P          22.1465   70.8960   -2.6783 P.3     1  UNL1        0.2189
      2 O          21.5289   69.5657   -2.4822 O.2     1  UNL1       -0.5170
      3 O          23.5971   70.7197   -3.3549 O.3     1  UNL1       -0.4371
      4 O          21.2115   71.7861   -3.6376 O.3     1  UNL1       -0.3112
      5 C          20.2286   72.4008   -2.8030 C.3     1  UNL1        0.1811
      6 C          17.9532   71.4186   -5.4077 C.3     1  UNL1        0.2383
      7 C          18.0502   70.1755   -4.4867 C.3     1  UNL1        0.1895
      8 O          16.8262   69.4372   -4.4959 O.3     1  UNL1       -0.3779
      9 C          18.2975   70.8190   -3.0975 C.3     1  UNL1        0.1713
     10 C          18.8432   72.2211   -3.4263 C.3     1  UNL1        0.1764
     11 O          18.9348   72.3227   -4.8579 O.3     1  UNL1       -0.3308
     12 O          17.0745   70.9102   -2.3642 O.3     1  UNL1       -0.3794
     13 H          16.9525   68.6806   -3.9065 H       1  UNL1        0.2106
     14 H          16.7534   70.0065   -2.2415 H       1  UNL1        0.2105
     15 N          18.2910   71.0679   -6.7882 N.ar    1  UNL1       -0.2551
     16 C          17.3127   70.7471   -7.6533 C.ar    1  UNL1        0.3323
     17 N          17.5960   70.4243   -8.9290 N.ar    1  UNL1       -0.2743
     18 C          18.8724   70.4081   -9.3588 C.ar    1  UNL1        0.2626
     19 C          19.9137   70.7382   -8.4572 C.ar    1  UNL1        0.0795
     20 C          19.6014   71.0623   -7.1845 C.ar    1  UNL1        0.0869
     21 O          16.1565   70.7578   -7.2801 O.2     1  UNL1       -0.2464
     22 O          19.1302   70.1114  -10.5121 O.2     1  UNL1       -0.2670
     23 H          16.8771   70.1996   -9.5408 H       1  UNL1        0.1734
     24 O          22.3062   71.6278   -1.2530 O.3     1  UNL1       -0.2703
     25 P          21.7371   70.6129   -0.1411 P.3     1  UNL1        0.2208
     26 O          20.5946   69.8579   -0.7012 O.2     1  UNL1       -0.5170
     27 O          22.8989   69.5847    0.2914 O.3     1  UNL1       -0.4371
     28 O          21.2514   71.4450    1.1481 O.3     1  UNL1       -0.2858
     29 C          22.2619   72.4171    1.4194 C.3     1  UNL1        0.2704
     30 C          22.7496   72.2561    2.8601 C.3     1  UNL1        0.1967
     31 C          21.5616   72.4310    3.8111 C.3     1  UNL1        0.1715
     32 C          20.8770   73.7666    3.4996 C.3     1  UNL1        0.1694
     33 C          20.5293   73.8122    2.0096 C.3     1  UNL1        0.1761
     34 O          23.3145   70.9550    3.0316 O.3     1  UNL1       -0.3775
     35 O          22.0247   72.4299    5.1631 O.3     1  UNL1       -0.3794
     36 O          21.7593   74.8424    3.8224 O.3     1  UNL1       -0.3794
     37 O          21.7236   73.7241    1.2338 O.3     1  UNL1       -0.3258
     38 H          24.0520   70.8869    2.4100 H       1  UNL1        0.2106
     39 H          22.4571   71.5792    5.3102 H       1  UNL1        0.2105
     40 H          21.9549   74.7705    4.7657 H       1  UNL1        0.2105
     41 C          19.8142   75.1280    1.6945 C.3     1  UNL1        0.1693
     42 O          19.0499   75.5375    2.8299 O.3     1  UNL1       -0.3794
     43 H          18.6169   76.3685    2.5908 H       1  UNL1        0.2105
@<TRIPOS>BOND
     1    15    16   ar
     2    15    20   ar
     3    15     6    1
     4    16    17   ar
     5    16    21    2
     6    17    18   ar
     7    17    23    1
     8    18    19   ar
     9    18    22    2
    10    19    20   ar
    11     6     7    1
    12     6    11    1
    13     7     8    1
    14     7     9    1
    15     8    13    1
    16     9    10    1
    17     9    12    1
    18    10    11    1
    19    10     5    1
    20    12    14    1
    21     5     4    1
    22     4     1    1
    23     1     2    2
    24     1     3    1
    25     1    24    1
    26    24    25    1
    27    25    26    2
    28    25    27    1
    29    25    28    1
    30    28    29    1
    31    29    30    1
    32    29    37    1
    33    30    31    1
    34    30    34    1
    35    31    32    1
    36    31    35    1
    37    32    33    1
    38    32    36    1
    39    33    41    1
    40    33    37    1
    41    41    42    1
    42    34    38    1
    43    35    39    1
    44    36    40    1
    45    42    43    1
@<TRIPOS>MOLECULE
GDU
 43 45 0 0 0
SMALL
GASTEIGER

@<TRIPOS>ATOM
      1 P          21.8942   70.8499   -0.5501 P.3     1  UNL1        0.2189
      2 O          21.2942   69.5542   -0.1618 O.2     1  UNL1       -0.5170
      3 O          23.1066   70.5932   -1.5782 O.3     1  UNL1       -0.4371
      4 O          20.7781   71.7687   -1.2552 O.3     1  UNL1       -0.3112
      5 C          20.7706   71.4206   -2.6406 C.3     1  UNL1        0.1811
      6 C          18.2553   71.1708   -5.1975 C.3     1  UNL1        0.2383
      7 C          18.1626   69.8284   -4.4280 C.3     1  UNL1        0.1895
      8 O          16.8261   69.3215   -4.4460 O.3     1  UNL1       -0.3779
      9 C          18.5760   70.2472   -2.9931 C.3     1  UNL1        0.1713
     10 C          19.3522   71.5616   -3.1959 C.3     1  UNL1        0.1764
     11 O          19.4046   71.8171   -4.6102 O.3     1  UNL1       -0.3308
     12 O          17.4190   70.4615   -2.1824 O.3     1  UNL1       -0.3794
     13 H          16.8369   68.4892   -3.9531 H       1  UNL1        0.2106
     14 H          16.9454   69.6197   -2.1420 H       1  UNL1        0.2105
     15 N          18.4701   70.9351   -6.6262 N.ar    1  UNL1       -0.2551
     16 C          17.4130   70.7839   -7.4435 C.ar    1  UNL1        0.3323
     17 N          17.5830   70.5697   -8.7615 N.ar    1  UNL1       -0.2743
     18 C          18.8222   70.4932   -9.2837 C.ar    1  UNL1        0.2626
     19 C          19.9452   70.6449   -8.4339 C.ar    1  UNL1        0.0795
     20 C          19.7462   70.8630   -7.1166 C.ar    1  UNL1        0.0869
     21 O          16.2891   70.8508   -6.9870 O.2     1  UNL1       -0.2464
     22 O          18.9771   70.2946  -10.4758 O.2     1  UNL1       -0.2670
     23 H          16.8086   70.4671   -9.3374 H       1  UNL1        0.1734
     24 O          22.4541   71.5957    0.7625 O.3     1  UNL1       -0.2703
     25 P          22.0354   73.1442    0.6336 P.3     1  UNL1        0.2208
     26 O          22.7769   73.7640   -0.4867 O.2     1  UNL1       -0.5170
     27 O          20.4529   73.2504    0.3529 O.3     1  UNL1       -0.4371
     28 O          22.3890   73.9126    2.0028 O.3     1  UNL1       -0.2858
     29 C          22.8427   72.9239    2.9282 C.3     1  UNL1        0.2704
     30 C          21.6955   72.5368    3.8628 C.3     1  UNL1        0.1967
     31 C          21.2109   73.7878    4.6022 C.3     1  UNL1        0.1715
     32 C          22.4131   74.4501    5.2847 C.3     1  UNL1        0.1694
     33 C          23.5058   74.6941    4.2410 C.3     1  UNL1        0.1761
     34 O          20.6217   71.9843    3.0992 O.3     1  UNL1       -0.3775
     35 O          20.2409   73.4192    5.5848 O.3     1  UNL1       -0.3794
     36 O          22.9107   73.5930    6.3131 O.3     1  UNL1       -0.3794
     37 O          23.9293   73.4490    3.6873 O.3     1  UNL1       -0.3258
     38 H          20.9732   71.2056    2.6465 H       1  UNL1        0.2106
     39 H          19.5113   72.9974    5.1135 H       1  UNL1        0.2105
     40 H          22.1893   73.4629    6.9424 H       1  UNL1        0.2105
     41 C          24.6979   75.3866    4.9054 C.3     1  UNL1        0.1693
     42 O          24.2829   75.9617    6.1456 O.3     1  UNL1       -0.3794
     43 H          25.0613   76.3864    6.5315 H       1  UNL1        0.2105
@<TRIPOS>BOND
     1    15    16   ar
     2    15    20   ar
     3    15     6    1
     4    16    17   ar
     5    16    21    2
     6    17    18   ar
     7    17    23    1
     8    18    19   ar
     9    18    22    2
    10    19    20   ar
    11     6     7    1
    12     6    11    1
    13     7     8    1
    14     7     9    1
    15     8    13    1
    16     9    10    1
    17     9    12    1
    18    10    11    1
    19    10     5    1
    20    12    14    1
    21     5     4    1
    22     4     1    1
    23     1     2    2
    24     1     3    1
    25     1    24    1
    26    24    25    1
    27    25    26    2
    28    25    27    1
    29    25    28    1
    30    28    29    1
    31    29    30    1
    32    29    37    1
    33    30    31    1
    34    30    34    1
    35    31    32    1
    36    31    35    1
    37    32    33    1
    38    32    36    1
    39    33    41    1
    40    33    37    1
    41    41    42    1
    42    34    38    1
    43    35    39    1
    44    36    40    1
    45    42    43    1
@<TRIPOS>MOLECULE
GDU
 43 45 0 0 0
SMALL
GASTEIGER

@<TRIPOS>ATOM
      1 P          22.4535   71.0129   -2.3274 P.3     1  UNL1        0.2189
      2 O          21.4511   69.9267   -2.2584 O.2     1  UNL1       -0.5170
      3 O          23.6292   70.5942   -3.3450 O.3     1  UNL1       -0.4371
      4 O          21.7488   72.3618   -2.8475 O.3     1  UNL1       -0.3112
      5 C          22.6271   72.9416   -3.8135 C.3     1  UNL1        0.1811
      6 C          20.4939   73.6970   -6.6074 C.3     1  UNL1        0.2383
      7 C          19.5227   73.5263   -5.4113 C.3     1  UNL1        0.1895
      8 O          18.3673   74.3527   -5.5707 O.3     1  UNL1       -0.3779
      9 C          20.3882   74.0097   -4.2186 C.3     1  UNL1        0.1713
     10 C          21.8353   73.8775   -4.7285 C.3     1  UNL1        0.1764
     11 O          21.7757   73.3276   -6.0560 O.3     1  UNL1       -0.3308
     12 O          20.0851   75.3693   -3.9001 O.3     1  UNL1       -0.3794
     13 H          17.8065   74.2000   -4.7974 H       1  UNL1        0.2106
     14 H          19.1527   75.3962   -3.6457 H       1  UNL1        0.2105
     15 N          20.1268   72.8003   -7.7047 N.ar    1  UNL1       -0.2551
     16 C          19.3943   73.2675   -8.7311 C.ar    1  UNL1        0.3323
     17 N          19.0463   72.4649   -9.7541 N.ar    1  UNL1       -0.2743
     18 C          19.4204   71.1709   -9.7608 C.ar    1  UNL1        0.2626
     19 C          20.1873   70.6635   -8.6835 C.ar    1  UNL1        0.0795
     20 C          20.5262   71.4912   -7.6724 C.ar    1  UNL1        0.0869
     21 O          19.0499   74.4326   -8.7391 O.2     1  UNL1       -0.2464
     22 O          19.1018   70.4425  -10.6841 O.2     1  UNL1       -0.2670
     23 H          18.5210   72.8200  -10.4887 H       1  UNL1        0.1734
     24 O          23.0760   71.2612   -0.8634 O.3     1  UNL1       -0.2703
     25 P          21.8676   71.1118    0.1889 P.3     1  UNL1        0.2208
     26 O          20.6207   71.6308   -0.4152 O.2     1  UNL1       -0.5170
     27 O          21.6741   69.5581    0.5665 O.3     1  UNL1       -0.4371
     28 O          22.2081   71.9481    1.5211 O.3     1  UNL1       -0.2858
     29 C          21.2941   73.0446    1.5677 C.3     1  UNL1        0.2704
     30 C          21.9947   74.3126    1.0771 C.3     1  UNL1        0.1967
     31 C          23.2121   74.5852    1.9659 C.3     1  UNL1        0.1715
     32 C          22.7539   74.6173    3.4283 C.3     1  UNL1        0.1694
     33 C          21.9970   73.3243    3.7412 C.3     1  UNL1        0.1761
     34 O          22.4182   74.1326   -0.2754 O.3     1  UNL1       -0.3775
     35 O          23.7914   75.8434    1.6139 O.3     1  UNL1       -0.3794
     36 O          21.8967   75.7407    3.6358 O.3     1  UNL1       -0.3794
     37 O          20.8429   73.2283    2.9076 O.3     1  UNL1       -0.3258
     38 H          21.6225   73.9570   -0.7959 H       1  UNL1        0.2106
     39 H          24.0529   75.7815    0.6866 H       1  UNL1        0.2105
     40 H          22.4120   76.5294    3.4218 H       1  UNL1        0.2105
     41 C          21.5645   73.3310    5.2092 C.3     1  UNL1        0.1693
     42 O          20.2782   73.9420    5.3232 O.3     1  UNL1       -0.3794
     43 H          20.0426   73.9256    6.2610 H       1  UNL1        0.2105
@<TRIPOS>BOND
     1    15    16   ar
     2    15    20   ar
     3    15     6    1
     4    16    17   ar
     5    16    21    2
     6    17    18   ar
     7    17    23    1
     8    18    19   ar
     9    18    22    2
    10    19    20   ar
    11     6     7    1
    12     6    11    1
    13     7     8    1
    14     7     9    1
    15     8    13    1
    16     9    10    1
    17     9    12    1
    18    10    11    1
    19    10     5    1
    20    12    14    1
    21     5     4    1
    22     4     1    1
    23     1     2    2
    24     1     3    1
    25     1    24    1
    26    24    25    1
    27    25    26    2
    28    25    27    1
    29    25    28    1
    30    28    29    1
    31    29    30    1
    32    29    37    1
    33    30    31    1
    34    30    34    1
    35    31    32    1
    36    31    35    1
    37    32    33    1
    38    32    36    1
    39    33    41    1
    40    33    37    1
    41    41    42    1
    42    34    38    1
    43    35    39    1
    44    36    40    1
    45    42    43    1
@<TRIPOS>MOLECULE
GDU
 43 45 0 0 0
SMALL
GASTEIGER

@<TRIPOS>ATOM
      1 P          23.1130   74.3271   -3.9922 P.3     1  UNL1        0.2189
      2 O          23.8436   75.2754   -4.8619 O.2     1  UNL1       -0.5170
      3 O          23.8094   72.8775   -4.0748 O.3     1  UNL1       -0.4371
      4 O          23.1497   74.8542   -2.4731 O.3     1  UNL1       -0.3112
      5 C          22.1846   74.0913   -1.7470 C.3     1  UNL1        0.1811
      6 C          22.9586   72.3159    1.2822 C.3     1  UNL1        0.2383
      7 C          21.7967   71.5112    0.6456 C.3     1  UNL1        0.1895
      8 O          21.8981   70.1235    0.9731 O.3     1  UNL1       -0.3779
      9 C          22.0345   71.7407   -0.8696 C.3     1  UNL1        0.1713
     10 C          22.8963   73.0158   -0.9243 C.3     1  UNL1        0.1764
     11 O          23.0749   73.4732    0.4274 O.3     1  UNL1       -0.3308
     12 O          22.7330   70.6319   -1.4393 O.3     1  UNL1       -0.3794
     13 H          21.1493   69.6814    0.5490 H       1  UNL1        0.2106
     14 H          22.1692   69.8554   -1.3217 H       1  UNL1        0.2105
     15 N          22.6230   72.7164    2.6497 N.ar    1  UNL1       -0.2551
     16 C          21.3797   72.5105    3.1187 C.ar    1  UNL1        0.3323
     17 N          21.0462   72.8662    4.3734 N.ar    1  UNL1       -0.2743
     18 C          21.9555   73.4464    5.1801 C.ar    1  UNL1        0.2626
     19 C          23.2675   73.6747    4.6976 C.ar    1  UNL1        0.0795
     20 C          23.5764   73.3044    3.4367 C.ar    1  UNL1        0.0869
     21 O          20.5488   71.9877    2.4029 O.2     1  UNL1       -0.2464
     22 O          21.6532   73.7730    6.3143 O.2     1  UNL1       -0.2670
     23 H          20.1454   72.7062    4.6969 H       1  UNL1        0.1734
     24 O          21.5846   74.2156   -4.4862 O.3     1  UNL1       -0.2703
     25 P          21.4703   72.8609   -5.3474 P.3     1  UNL1        0.2208
     26 O          22.6614   72.7259   -6.2146 O.2     1  UNL1       -0.5170
     27 O          21.3861   71.5978   -4.3516 O.3     1  UNL1       -0.4371
     28 O          20.1449   72.9134   -6.2588 O.3     1  UNL1       -0.2858
     29 C          19.7980   71.5622   -6.5649 C.3     1  UNL1        0.2704
     30 C          19.8295   71.3594   -8.0806 C.3     1  UNL1        0.1967
     31 C          18.8435   72.3324   -8.7344 C.3     1  UNL1        0.1715
     32 C          17.4691   72.1506   -8.0804 C.3     1  UNL1        0.1694
     33 C          17.6165   72.2955   -6.5638 C.3     1  UNL1        0.1761
     34 O          21.1480   71.6109   -8.5699 O.3     1  UNL1       -0.3775
     35 O          18.7524   72.0557  -10.1336 O.3     1  UNL1       -0.3794
     36 O          16.9585   70.8541   -8.3940 O.3     1  UNL1       -0.3794
     37 O          18.4916   71.2842   -6.0664 O.3     1  UNL1       -0.3258
     38 H          21.7345   70.9824   -8.1273 H       1  UNL1        0.2106
     39 H          19.6384   72.1703  -10.4998 H       1  UNL1        0.2105
     40 H          16.8880   70.8062   -9.3563 H       1  UNL1        0.2105
     41 C          16.2437   72.1498   -5.9034 C.3     1  UNL1        0.1693
     42 O          16.3838   71.4533   -4.6639 O.3     1  UNL1       -0.3794
     43 H          15.4987   71.3833   -4.2806 H       1  UNL1        0.2105
@<TRIPOS>BOND
     1    15    16   ar
     2    15    20   ar
     3    15     6    1
     4    16    17   ar
     5    16    21    2
     6    17    18   ar
     7    17    23    1
     8    18    19   ar
     9    18    22    2
    10    19    20   ar
    11     6     7    1
    12     6    11    1
    13     7     8    1
    14     7     9    1
    15     8    13    1
    16     9    10    1
    17     9    12    1
    18    10    11    1
    19    10     5    1
    20    12    14    1
    21     5     4    1
    22     4     1    1
    23     1     2    2
    24     1     3    1
    25     1    24    1
    26    24    25    1
    27    25    26    2
    28    25    27    1
    29    25    28    1
    30    28    29    1
    31    29    30    1
    32    29    37    1
    33    30    31    1
    34    30    34    1
    35    31    32    1
    36    31    35    1
    37    32    33    1
    38    32    36    1
    39    33    41    1
    40    33    37    1
    41    41    42    1
    42    34    38    1
    43    35    39    1
    44    36    40    1
    45    42    43    1
@<TRIPOS>MOLECULE
GDU
 43 45 0 0 0
SMALL
GASTEIGER

@<TRIPOS>ATOM
      1 P          21.8097   73.8064   -4.3575 P.3     1  UNL1        0.2189
      2 O          23.0131   73.3096   -5.0608 O.2     1  UNL1       -0.5170
      3 O          20.9331   74.7066   -5.3645 O.3     1  UNL1       -0.4371
      4 O          20.9310   72.5586   -3.8499 O.3     1  UNL1       -0.3112
      5 C          19.7828   73.1003   -3.1950 C.3     1  UNL1        0.1811
      6 C          17.8999   71.2398   -5.6282 C.3     1  UNL1        0.2383
      7 C          18.4138   70.1689   -4.6321 C.3     1  UNL1        0.1895
      8 O          17.4965   69.0766   -4.5395 O.3     1  UNL1       -0.3779
      9 C          18.4656   70.9621   -3.3004 C.3     1  UNL1        0.1713
     10 C          18.5192   72.4358   -3.7445 C.3     1  UNL1        0.1764
     11 O          18.5447   72.4517   -5.1823 O.3     1  UNL1       -0.3308
     12 O          17.2939   70.7094   -2.5225 O.3     1  UNL1       -0.3794
     13 H          17.8734   68.4487   -3.9075 H       1  UNL1        0.2106
     14 H          17.2866   69.7626   -2.3266 H       1  UNL1        0.2105
     15 N          18.3063   70.9124   -6.9959 N.ar    1  UNL1       -0.2551
     16 C          17.3733   70.5951   -7.9109 C.ar    1  UNL1        0.3323
     17 N          17.7201   70.2936   -9.1761 N.ar    1  UNL1       -0.2743
     18 C          19.0155   70.2955   -9.5449 C.ar    1  UNL1        0.2626
     19 C          20.0095   70.6222   -8.5903 C.ar    1  UNL1        0.0795
     20 C          19.6339   70.9247   -7.3294 C.ar    1  UNL1        0.0869
     21 O          16.2007   70.5897   -7.5930 O.2     1  UNL1       -0.2464
     22 O          19.3307   70.0181  -10.6887 O.2     1  UNL1       -0.2670
     23 H          17.0332   70.0712   -9.8245 H       1  UNL1        0.1734
     24 O          22.2576   74.6983   -3.0941 O.3     1  UNL1       -0.2703
     25 P          23.6909   74.1439   -2.6161 P.3     1  UNL1        0.2208
     26 O          24.2259   73.2159   -3.6367 O.2     1  UNL1       -0.5170
     27 O          24.7081   75.3785   -2.4282 O.3     1  UNL1       -0.4371
     28 O          23.5273   73.3671   -1.2161 O.3     1  UNL1       -0.2858
     29 C          22.1683   73.5291   -0.8079 C.3     1  UNL1        0.2704
     30 C          22.1021   74.5102    0.3636 C.3     1  UNL1        0.1967
     31 C          22.9522   73.9679    1.5167 C.3     1  UNL1        0.1715
     32 C          22.4932   72.5404    1.8347 C.3     1  UNL1        0.1694
     33 C          22.5318   71.7076    0.5509 C.3     1  UNL1        0.1761
     34 O          22.6065   75.7819   -0.0481 O.3     1  UNL1       -0.3775
     35 O          22.7835   74.7969    2.6686 O.3     1  UNL1       -0.3794
     36 O          21.1618   72.5703    2.3507 O.3     1  UNL1       -0.3794
     37 O          21.6390   72.2659   -0.4120 O.3     1  UNL1       -0.3258
     38 H          22.0474   76.0809   -0.7780 H       1  UNL1        0.2106
     39 H          23.0722   75.6840    2.4197 H       1  UNL1        0.2105
     40 H          21.1845   73.1086    3.1526 H       1  UNL1        0.2105
     41 C          22.1079   70.2709    0.8641 C.3     1  UNL1        0.1693
     42 O          23.0235   69.3609    0.2521 O.3     1  UNL1       -0.3794
     43 H          22.7221   68.4691    0.4737 H       1  UNL1        0.2105
@<TRIPOS>BOND
     1    15    16   ar
     2    15    20   ar
     3    15     6    1
     4    16    17   ar
     5    16    21    2
     6    17    18   ar
     7    17    23    1
     8    18    19   ar
     9    18    22    2
    10    19    20   ar
    11     6     7    1
    12     6    11    1
    13     7     8    1
    14     7     9    1
    15     8    13    1
    16     9    10    1
    17     9    12    1
    18    10    11    1
    19    10     5    1
    20    12    14    1
    21     5     4    1
    22     4     1    1
    23     1     2    2
    24     1     3    1
    25     1    24    1
    26    24    25    1
    27    25    26    2
    28    25    27    1
    29    25    28    1
    30    28    29    1
    31    29    30    1
    32    29    37    1
    33    30    31    1
    34    30    34    1
    35    31    32    1
    36    31    35    1
    37    32    33    1
    38    32    36    1
    39    33    41    1
    40    33    37    1
    41    41    42    1
    42    34    38    1
    43    35    39    1
    44    36    40    1
    45    42    43    1
@<TRIPOS>MOLECULE
GDU
 43 45 0 0 0
SMALL
GASTEIGER

@<TRIPOS>ATOM
      1 P          22.9389   72.1347   -3.3642 P.3     1  UNL1        0.2189
      2 O          23.8601   72.9218   -4.2135 O.2     1  UNL1       -0.5170
      3 O          23.4764   70.6211   -3.2491 O.3     1  UNL1       -0.4371
      4 O          22.8667   72.7915   -1.8979 O.3     1  UNL1       -0.3112
      5 C          21.9965   71.9694   -1.1186 C.3     1  UNL1        0.1811
      6 C          20.5534   73.8377    1.5933 C.3     1  UNL1        0.2383
      7 C          21.3596   74.8858    0.7843 C.3     1  UNL1        0.1895
      8 O          20.7527   76.1768    0.8751 O.3     1  UNL1       -0.3779
      9 C          21.2602   74.3283   -0.6595 C.3     1  UNL1        0.1713
     10 C          20.9220   72.8388   -0.4631 C.3     1  UNL1        0.1764
     11 O          20.8873   72.5881    0.9525 O.3     1  UNL1       -0.3308
     12 O          20.2214   74.9931   -1.3814 O.3     1  UNL1       -0.3794
     13 H          21.3003   76.7797    0.3531 H       1  UNL1        0.2106
     14 H          20.4615   75.9288   -1.4195 H       1  UNL1        0.2105
     15 N          20.9765   73.8279    2.9946 N.ar    1  UNL1       -0.2551
     16 C          21.4527   72.6946    3.5396 C.ar    1  UNL1        0.3323
     17 N          21.8516   72.6597    4.8247 N.ar    1  UNL1       -0.2743
     18 C          21.7704   73.7635    5.5922 C.ar    1  UNL1        0.2626
     19 C          21.2654   74.9631    5.0332 C.ar    1  UNL1        0.0795
     20 C          20.8762   74.9715    3.7405 C.ar    1  UNL1        0.0869
     21 O          21.5324   71.6909    2.8596 O.2     1  UNL1       -0.2464
     22 O          22.1268   73.7317    6.7568 O.2     1  UNL1       -0.2670
     23 H          22.1968   71.8341    5.2004 H       1  UNL1        0.1734
     24 O          21.4708   72.1324   -4.0255 O.3     1  UNL1       -0.2703
     25 P          21.5180   73.1518   -5.2700 P.3     1  UNL1        0.2208
     26 O          21.6502   74.5372   -4.7677 O.2     1  UNL1       -0.5170
     27 O          22.7804   72.7980   -6.2056 O.3     1  UNL1       -0.4371
     28 O          20.1624   73.0175   -6.1268 O.3     1  UNL1       -0.2858
     29 C          20.3484   71.9267   -7.0297 C.3     1  UNL1        0.2704
     30 C          20.0777   72.3974   -8.4595 C.3     1  UNL1        0.1967
     31 C          18.6449   72.9323   -8.5455 C.3     1  UNL1        0.1715
     32 C          17.6877   71.8561   -8.0208 C.3     1  UNL1        0.1694
     33 C          18.1390   71.4276   -6.6223 C.3     1  UNL1        0.1761
     34 O          20.9986   73.4337   -8.8047 O.3     1  UNL1       -0.3775
     35 O          18.3277   73.2390   -9.9048 O.3     1  UNL1       -0.3794
     36 O          17.7062   70.7305   -8.8999 O.3     1  UNL1       -0.3794
     37 O          19.4515   70.8720   -6.6892 O.3     1  UNL1       -0.3258
     38 H          21.8852   73.0553   -8.7301 H       1  UNL1        0.2106
     39 H          18.9598   73.9084  -10.1955 H       1  UNL1        0.2105
     40 H          17.4216   71.0478   -9.7668 H       1  UNL1        0.2105
     41 C          17.1697   70.3774   -6.0750 C.3     1  UNL1        0.1693
     42 O          16.5442   70.8783   -4.8922 O.3     1  UNL1       -0.3794
     43 H          15.9424   70.1885   -4.5803 H       1  UNL1        0.2105
@<TRIPOS>BOND
     1    15    16   ar
     2    15    20   ar
     3    15     6    1
     4    16    17   ar
     5    16    21    2
     6    17    18   ar
     7    17    23    1
     8    18    19   ar
     9    18    22    2
    10    19    20   ar
    11     6     7    1
    12     6    11    1
    13     7     8    1
    14     7     9    1
    15     8    13    1
    16     9    10    1
    17     9    12    1
    18    10    11    1
    19    10     5    1
    20    12    14    1
    21     5     4    1
    22     4     1    1
    23     1     2    2
    24     1     3    1
    25     1    24    1
    26    24    25    1
    27    25    26    2
    28    25    27    1
    29    25    28    1
    30    28    29    1
    31    29    30    1
    32    29    37    1
    33    30    31    1
    34    30    34    1
    35    31    32    1
    36    31    35    1
    37    32    33    1
    38    32    36    1
    39    33    41    1
    40    33    37    1
    41    41    42    1
    42    34    38    1
    43    35    39    1
    44    36    40    1
    45    42    43    1
@<TRIPOS>MOLECULE
GDU
 43 45 0 0 0
SMALL
GASTEIGER

@<TRIPOS>ATOM
      1 P          21.5110   71.4087   -0.2635 P.3     1  UNL1        0.2189
      2 O          22.8225   71.8023   -0.8244 O.2     1  UNL1       -0.5170
      3 O          20.5133   72.6722   -0.2940 O.3     1  UNL1       -0.4371
      4 O          20.8890   70.2125   -1.1405 O.3     1  UNL1       -0.3112
      5 C          20.9756   70.6142   -2.5086 C.3     1  UNL1        0.1811
      6 C          18.4245   70.9755   -5.0163 C.3     1  UNL1        0.2383
      7 C          18.1441   69.5936   -4.3724 C.3     1  UNL1        0.1895
      8 O          16.7478   69.2896   -4.4050 O.3     1  UNL1       -0.3779
      9 C          18.6293   69.8097   -2.9153 C.3     1  UNL1        0.1713
     10 C          19.5874   71.0112   -3.0142 C.3     1  UNL1        0.1764
     11 O          19.6620   71.3898   -4.3996 O.3     1  UNL1       -0.3308
     12 O          17.5246   70.1113   -2.0605 O.3     1  UNL1       -0.3794
     13 H          16.6417   68.4214   -3.9917 H       1  UNL1        0.2106
     14 H          16.9332   69.3468   -2.0868 H       1  UNL1        0.2105
     15 N          18.5877   70.8481   -6.4655 N.ar    1  UNL1       -0.2551
     16 C          17.5020   70.8100   -7.2580 C.ar    1  UNL1        0.3323
     17 N          17.6246   70.6970   -8.5937 N.ar    1  UNL1       -0.2743
     18 C          18.8437   70.6098   -9.1597 C.ar    1  UNL1        0.2626
     19 C          19.9961   70.6428   -8.3368 C.ar    1  UNL1        0.0795
     20 C          19.8448   70.7611   -7.0005 C.ar    1  UNL1        0.0869
     21 O          16.3958   70.8881   -6.7619 O.2     1  UNL1       -0.2464
     22 O          18.9555   70.5026  -10.3683 O.2     1  UNL1       -0.2670
     23 H          16.8304   70.6754   -9.1509 H       1  UNL1        0.1734
     24 O          21.7049   70.9163    1.2572 O.3     1  UNL1       -0.2703
     25 P          21.8251   72.2400    2.1645 P.3     1  UNL1        0.2208
     26 O          20.5457   72.9820    2.1261 O.2     1  UNL1       -0.5170
     27 O          22.1561   71.8205    3.6840 O.3     1  UNL1       -0.4371
     28 O          23.0061   73.1749    1.5979 O.3     1  UNL1       -0.2858
     29 C          22.5997   74.5283    1.8051 C.3     1  UNL1        0.2704
     30 C          23.0235   75.3766    0.6051 C.3     1  UNL1        0.1967
     31 C          24.5441   75.2873    0.4435 C.3     1  UNL1        0.1715
     32 C          25.2016   75.6666    1.7752 C.3     1  UNL1        0.1694
     33 C          24.6135   74.7941    2.8870 C.3     1  UNL1        0.1761
     34 O          22.3856   74.8875   -0.5760 O.3     1  UNL1       -0.3775
     35 O          24.9719   76.1886   -0.5798 O.3     1  UNL1       -0.3794
     36 O          24.9489   77.0437    2.0578 O.3     1  UNL1       -0.3794
     37 O          23.2101   75.0295    2.9921 O.3     1  UNL1       -0.3258
     38 H          21.4327   74.9556   -0.4270 H       1  UNL1        0.2106
     39 H          24.5260   75.9205   -1.3932 H       1  UNL1        0.2105
     40 H          25.3304   77.5531    1.3310 H       1  UNL1        0.2105
     41 C          25.2881   75.1412    4.2161 C.3     1  UNL1        0.1693
     42 O          24.5465   74.5622    5.2912 O.3     1  UNL1       -0.3794
     43 H          25.0040   74.8032    6.1084 H       1  UNL1        0.2105
@<TRIPOS>BOND
     1    15    16   ar
     2    15    20   ar
     3    15     6    1
     4    16    17   ar
     5    16    21    2
     6    17    18   ar
     7    17    23    1
     8    18    19   ar
     9    18    22    2
    10    19    20   ar
    11     6     7    1
    12     6    11    1
    13     7     8    1
    14     7     9    1
    15     8    13    1
    16     9    10    1
    17     9    12    1
    18    10    11    1
    19    10     5    1
    20    12    14    1
    21     5     4    1
    22     4     1    1
    23     1     2    2
    24     1     3    1
    25     1    24    1
    26    24    25    1
    27    25    26    2
    28    25    27    1
    29    25    28    1
    30    28    29    1
    31    29    30    1
    32    29    37    1
    33    30    31    1
    34    30    34    1
    35    31    32    1
    36    31    35    1
    37    32    33    1
    38    32    36    1
    39    33    41    1
    40    33    37    1
    41    41    42    1
    42    34    38    1
    43    35    39    1
    44    36    40    1
    45    42    43    1
@<TRIPOS>MOLECULE
GDU
 43 45 0 0 0
SMALL
GASTEIGER

@<TRIPOS>ATOM
      1 P          21.4769   71.3000   -0.4598 P.3     1  UNL1        0.2189
      2 O          22.8704   71.5608   -0.8836 O.2     1  UNL1       -0.5170
      3 O          20.6215   72.6605   -0.5617 O.3     1  UNL1       -0.4371
      4 O          20.8248   70.1833   -1.4161 O.3     1  UNL1       -0.3112
      5 C          20.9446   70.6646   -2.7557 C.3     1  UNL1        0.1811
      6 C          18.3996   70.9848   -5.2752 C.3     1  UNL1        0.2383
      7 C          18.0848   69.6392   -4.5730 C.3     1  UNL1        0.1895
      8 O          16.6810   69.3703   -4.5919 O.3     1  UNL1       -0.3779
      9 C          18.5777   69.9044   -3.1266 C.3     1  UNL1        0.1713
     10 C          19.5663   71.0755   -3.2770 C.3     1  UNL1        0.1764
     11 O          19.6484   71.3928   -4.6773 O.3     1  UNL1       -0.3308
     12 O          17.4825   70.2704   -2.2848 O.3     1  UNL1       -0.3794
     13 H          16.5532   68.5235   -4.1420 H       1  UNL1        0.2106
     14 H          16.8716   69.5211   -2.2784 H       1  UNL1        0.2105
     15 N          18.5572   70.7918   -6.7177 N.ar    1  UNL1       -0.2551
     16 C          17.4700   70.7559   -7.5084 C.ar    1  UNL1        0.3323
     17 N          17.5875   70.5833   -8.8381 N.ar    1  UNL1       -0.2743
     18 C          18.8026   70.4330   -9.3996 C.ar    1  UNL1        0.2626
     19 C          19.9562   70.4628   -8.5783 C.ar    1  UNL1        0.0795
     20 C          19.8102   70.6417   -7.2482 C.ar    1  UNL1        0.0869
     21 O          16.3674   70.8906   -7.0164 O.2     1  UNL1       -0.2464
     22 O          18.9096   70.2719  -10.6025 O.2     1  UNL1       -0.2670
     23 H          16.7924   70.5643   -9.3942 H       1  UNL1        0.1734
     24 O          21.4691   70.7757    1.0625 O.3     1  UNL1       -0.2703
     25 P          22.0081   71.9863    1.9758 P.3     1  UNL1        0.2208
     26 O          22.9744   71.4638    2.9669 O.2     1  UNL1       -0.5170
     27 O          22.7352   73.0795    1.0428 O.3     1  UNL1       -0.4371
     28 O          20.7710   72.6740    2.7418 O.3     1  UNL1       -0.2858
     29 C          21.2595   73.8890    3.3117 C.3     1  UNL1        0.2704
     30 C          20.9803   73.8945    4.8154 C.3     1  UNL1        0.1967
     31 C          19.4716   73.7587    5.0429 C.3     1  UNL1        0.1715
     32 C          18.7549   74.8520    4.2424 C.3     1  UNL1        0.1694
     33 C          19.2019   74.7725    2.7806 C.3     1  UNL1        0.1761
     34 O          21.6594   72.7992    5.4323 O.3     1  UNL1       -0.3775
     35 O          19.1802   73.9096    6.4339 O.3     1  UNL1       -0.3794
     36 O          19.0871   76.1330    4.7797 O.3     1  UNL1       -0.3794
     37 O          20.6083   74.9969    2.6944 O.3     1  UNL1       -0.3258
     38 H          22.6025   72.9219    5.2580 H       1  UNL1        0.2106
     39 H          19.6594   73.2113    6.8976 H       1  UNL1        0.2105
     40 H          18.7935   76.1352    5.7000 H       1  UNL1        0.2105
     41 C          18.4660   75.8383    1.9654 C.3     1  UNL1        0.1693
     42 O          17.0682   75.5435    1.9491 O.3     1  UNL1       -0.3794
     43 H          16.6420   76.2373    1.4274 H       1  UNL1        0.2105
@<TRIPOS>BOND
     1    15    16   ar
     2    15    20   ar
     3    15     6    1
     4    16    17   ar
     5    16    21    2
     6    17    18   ar
     7    17    23    1
     8    18    19   ar
     9    18    22    2
    10    19    20   ar
    11     6     7    1
    12     6    11    1
    13     7     8    1
    14     7     9    1
    15     8    13    1
    16     9    10    1
    17     9    12    1
    18    10    11    1
    19    10     5    1
    20    12    14    1
    21     5     4    1
    22     4     1    1
    23     1     2    2
    24     1     3    1
    25     1    24    1
    26    24    25    1
    27    25    26    2
    28    25    27    1
    29    25    28    1
    30    28    29    1
    31    29    30    1
    32    29    37    1
    33    30    31    1
    34    30    34    1
    35    31    32    1
    36    31    35    1
    37    32    33    1
    38    32    36    1
    39    33    41    1
    40    33    37    1
    41    41    42    1
    42    34    38    1
    43    35    39    1
    44    36    40    1
    45    42    43    1
@<TRIPOS>MOLECULE
GDU
 43 45 0 0 0
SMALL
GASTEIGER

@<TRIPOS>ATOM
      1 P          22.3762   70.9375   -2.1637 P.3     1  UNL1        0.2189
      2 O          21.7656   69.6013   -1.9870 O.2     1  UNL1       -0.5170
      3 O          23.6533   70.8193   -3.1373 O.3     1  UNL1       -0.4371
      4 O          21.2979   71.9393   -2.8122 O.3     1  UNL1       -0.3112
      5 C          20.6645   71.2313   -3.8789 C.3     1  UNL1        0.1811
      6 C          17.1731   71.4378   -4.7127 C.3     1  UNL1        0.2383
      7 C          17.5645   69.9732   -5.0362 C.3     1  UNL1        0.1895
      8 O          16.4540   69.0941   -4.8430 O.3     1  UNL1       -0.3779
      9 C          18.6775   69.6961   -3.9924 C.3     1  UNL1        0.1713
     10 C          19.1686   71.0985   -3.5877 C.3     1  UNL1        0.1764
     11 O          18.4320   72.0549   -4.3694 O.3     1  UNL1       -0.3308
     12 O          18.1425   69.0012   -2.8642 O.3     1  UNL1       -0.3794
     13 H          16.7624   68.2033   -5.0604 H       1  UNL1        0.2106
     14 H          17.7989   68.1588   -3.1912 H       1  UNL1        0.2105
     15 N          16.5829   72.0872   -5.8843 N.ar    1  UNL1       -0.2551
     16 C          16.8994   71.6535   -7.1172 C.ar    1  UNL1        0.3323
     17 N          16.3681   72.2308   -8.2110 N.ar    1  UNL1       -0.2743
     18 C          15.5135   73.2646   -8.0870 C.ar    1  UNL1        0.2626
     19 C          15.1755   73.7358   -6.7947 C.ar    1  UNL1        0.0795
     20 C          15.7195   73.1359   -5.7146 C.ar    1  UNL1        0.0869
     21 O          17.6685   70.7217   -7.2449 O.2     1  UNL1       -0.2464
     22 O          15.0357   73.7909   -9.0765 O.2     1  UNL1       -0.2670
     23 H          16.6043   71.9021   -9.0929 H       1  UNL1        0.1734
     24 O          22.8454   71.5056   -0.7320 O.3     1  UNL1       -0.2703
     25 P          21.9885   70.7240    0.3837 P.3     1  UNL1        0.2208
     26 O          21.0378   69.8045   -0.2794 O.2     1  UNL1       -0.5170
     27 O          22.9821   69.8784    1.3281 O.3     1  UNL1       -0.4371
     28 O          21.1744   71.7859    1.2779 O.3     1  UNL1       -0.2858
     29 C          22.1371   72.6757    1.8447 C.3     1  UNL1        0.2704
     30 C          21.9374   72.7441    3.3596 C.3     1  UNL1        0.1967
     31 C          20.5143   73.2286    3.6534 C.3     1  UNL1        0.1715
     32 C          20.2805   74.5455    2.9046 C.3     1  UNL1        0.1694
     33 C          20.6043   74.3396    1.4227 C.3     1  UNL1        0.1761
     34 O          22.1297   71.4469    3.9268 O.3     1  UNL1       -0.3775
     35 O          20.3591   73.4385    5.0586 O.3     1  UNL1       -0.3794
     36 O          21.1266   75.5603    3.4470 O.3     1  UNL1       -0.3794
     37 O          21.9754   73.9730    1.2760 O.3     1  UNL1       -0.3258
     38 H          23.0336   71.1796    3.7115 H       1  UNL1        0.2106
     39 H          20.5263   72.5902    5.4884 H       1  UNL1        0.2105
     40 H          20.8920   75.6513    4.3797 H       1  UNL1        0.2105
     41 C          20.3413   75.6398    0.6596 C.3     1  UNL1        0.1693
     42 O          21.5247   76.4401    0.6617 O.3     1  UNL1       -0.3794
     43 H          21.3174   77.2475    0.1714 H       1  UNL1        0.2105
@<TRIPOS>BOND
     1    15    16   ar
     2    15    20   ar
     3    15     6    1
     4    16    17   ar
     5    16    21    2
     6    17    18   ar
     7    17    23    1
     8    18    19   ar
     9    18    22    2
    10    19    20   ar
    11     6     7    1
    12     6    11    1
    13     7     8    1
    14     7     9    1
    15     8    13    1
    16     9    10    1
    17     9    12    1
    18    10    11    1
    19    10     5    1
    20    12    14    1
    21     5     4    1
    22     4     1    1
    23     1     2    2
    24     1     3    1
    25     1    24    1
    26    24    25    1
    27    25    26    2
    28    25    27    1
    29    25    28    1
    30    28    29    1
    31    29    30    1
    32    29    37    1
    33    30    31    1
    34    30    34    1
    35    31    32    1
    36    31    35    1
    37    32    33    1
    38    32    36    1
    39    33    41    1
    40    33    37    1
    41    41    42    1
    42    34    38    1
    43    35    39    1
    44    36    40    1
    45    42    43    1
@<TRIPOS>MOLECULE
GDU
 43 45 0 0 0
SMALL
GASTEIGER

@<TRIPOS>ATOM
      1 P          19.8084   72.9736   -3.6100 P.3     1  UNL1        0.2189
      2 O          19.5151   74.4220   -3.5344 O.2     1  UNL1       -0.5170
      3 O          21.0740   72.7321   -4.5758 O.3     1  UNL1       -0.4371
      4 O          20.1420   72.4158   -2.1388 O.3     1  UNL1       -0.3112
      5 C          20.8696   73.4421   -1.4622 C.3     1  UNL1        0.1811
      6 C          22.9132   72.4574    1.3273 C.3     1  UNL1        0.2383
      7 C          22.0965   71.1876    0.9758 C.3     1  UNL1        0.1895
      8 O          22.8369   70.0040    1.2824 O.3     1  UNL1       -0.3779
      9 C          21.9043   71.3385   -0.5557 C.3     1  UNL1        0.1713
     10 C          22.1181   72.8417   -0.8134 C.3     1  UNL1        0.1764
     11 O          22.3560   73.4673    0.4595 O.3     1  UNL1       -0.3308
     12 O          22.8742   70.5605   -1.2600 O.3     1  UNL1       -0.3794
     13 H          22.2756   69.2537    1.0418 H       1  UNL1        0.2106
     14 H          22.7266   69.6377   -1.0122 H       1  UNL1        0.2105
     15 N          22.7237   72.8227    2.7321 N.ar    1  UNL1       -0.2551
     16 C          21.5887   72.4755    3.3641 C.ar    1  UNL1        0.3323
     17 N          21.3910   72.7961    4.6564 N.ar    1  UNL1       -0.2743
     18 C          22.3284   73.4824    5.3378 C.ar    1  UNL1        0.2626
     19 C          23.5265   73.8599    4.6833 C.ar    1  UNL1        0.0795
     20 C          23.7009   73.5219    3.3880 C.ar    1  UNL1        0.0869
     21 O          20.7342   71.8558    2.7626 O.2     1  UNL1       -0.2464
     22 O          22.1483   73.7772    6.5062 O.2     1  UNL1       -0.2670
     23 H          20.5677   72.5336    5.0980 H       1  UNL1        0.1734
     24 O          18.5277   72.1979   -4.2018 O.3     1  UNL1       -0.2703
     25 P          19.0565   70.7860   -4.7649 P.3     1  UNL1        0.2208
     26 O          20.2322   70.3510   -3.9791 O.2     1  UNL1       -0.5170
     27 O          17.8879   69.6852   -4.6352 O.3     1  UNL1       -0.4371
     28 O          19.4725   70.9455   -6.3113 O.3     1  UNL1       -0.2858
     29 C          18.4835   71.7742   -6.9237 C.3     1  UNL1        0.2704
     30 C          17.7580   70.9814   -8.0121 C.3     1  UNL1        0.1967
     31 C          18.7811   70.5049   -9.0477 C.3     1  UNL1        0.1715
     32 C          19.5766   71.7174   -9.5445 C.3     1  UNL1        0.1694
     33 C          20.1663   72.4537   -8.3390 C.3     1  UNL1        0.1761
     34 O          17.1052   69.8529   -7.4276 O.3     1  UNL1       -0.3775
     35 O          18.1027   69.8903  -10.1453 O.3     1  UNL1       -0.3794
     36 O          18.7109   72.5928  -10.2685 O.3     1  UNL1       -0.3794
     37 O          19.1128   72.9182   -7.4962 O.3     1  UNL1       -0.3258
     38 H          16.4773   70.1990   -6.7788 H       1  UNL1        0.2106
     39 H          17.6080   69.1432   -9.7855 H       1  UNL1        0.2105
     40 H          18.3594   72.0866  -11.0125 H       1  UNL1        0.2105
     41 C          20.9914   73.6470   -8.8260 C.3     1  UNL1        0.1693
     42 O          22.3460   73.2390   -9.0248 O.3     1  UNL1       -0.3794
     43 H          22.8307   74.0176   -9.3314 H       1  UNL1        0.2105
@<TRIPOS>BOND
     1    15    16   ar
     2    15    20   ar
     3    15     6    1
     4    16    17   ar
     5    16    21    2
     6    17    18   ar
     7    17    23    1
     8    18    19   ar
     9    18    22    2
    10    19    20   ar
    11     6     7    1
    12     6    11    1
    13     7     8    1
    14     7     9    1
    15     8    13    1
    16     9    10    1
    17     9    12    1
    18    10    11    1
    19    10     5    1
    20    12    14    1
    21     5     4    1
    22     4     1    1
    23     1     2    2
    24     1     3    1
    25     1    24    1
    26    24    25    1
    27    25    26    2
    28    25    27    1
    29    25    28    1
    30    28    29    1
    31    29    30    1
    32    29    37    1
    33    30    31    1
    34    30    34    1
    35    31    32    1
    36    31    35    1
    37    32    33    1
    38    32    36    1
    39    33    41    1
    40    33    37    1
    41    41    42    1
    42    34    38    1
    43    35    39    1
    44    36    40    1
    45    42    43    1
@<TRIPOS>MOLECULE
GDU
 43 45 0 0 0
SMALL
GASTEIGER

@<TRIPOS>ATOM
      1 P          20.5356   74.4715   -3.3398 P.3     1  UNL1        0.2189
      2 O          19.5171   74.9809   -4.2846 O.2     1  UNL1       -0.5170
      3 O          20.5723   75.4109   -2.0325 O.3     1  UNL1       -0.4371
      4 O          20.1639   72.9671   -2.9092 O.3     1  UNL1       -0.3112
      5 C          18.7785   72.9667   -2.5608 C.3     1  UNL1        0.1811
      6 C          18.0730   70.5252   -5.1041 C.3     1  UNL1        0.2383
      7 C          19.2726   69.9346   -4.3199 C.3     1  UNL1        0.1895
      8 O          19.2324   68.5057   -4.3267 O.3     1  UNL1       -0.3779
      9 C          19.0308   70.4878   -2.8913 C.3     1  UNL1        0.1713
     10 C          18.1127   71.7044   -3.1115 C.3     1  UNL1        0.1764
     11 O          17.9082   71.8387   -4.5287 O.3     1  UNL1       -0.3308
     12 O          18.3853   69.5061   -2.0780 O.3     1  UNL1       -0.3794
     13 H          20.0020   68.2027   -3.8249 H       1  UNL1        0.2106
     14 H          18.9830   68.7480   -2.0265 H       1  UNL1        0.2105
     15 N          18.3846   70.6226   -6.5311 N.ar    1  UNL1       -0.2551
     16 C          17.4069   70.4592   -7.4398 C.ar    1  UNL1        0.3323
     17 N          17.6661   70.5474   -8.7578 N.ar    1  UNL1       -0.2743
     18 C          18.9182   70.7923   -9.1897 C.ar    1  UNL1        0.2626
     19 C          19.9591   70.9609   -8.2440 C.ar    1  UNL1        0.0795
     20 C          19.6708   70.8717   -6.9282 C.ar    1  UNL1        0.0869
     21 O          16.2725   70.2383   -7.0653 O.2     1  UNL1       -0.2464
     22 O          19.1546   70.8675  -10.3825 O.2     1  UNL1       -0.2670
     23 H          16.9475   70.4310   -9.3995 H       1  UNL1        0.1734
     24 O          21.9804   74.4863   -4.0503 O.3     1  UNL1       -0.2703
     25 P          22.9580   73.5904   -3.1383 P.3     1  UNL1        0.2208
     26 O          23.4599   72.4460   -3.9305 O.2     1  UNL1       -0.5170
     27 O          24.2016   74.4869   -2.6442 O.3     1  UNL1       -0.4371
     28 O          22.1493   73.0449   -1.8583 O.3     1  UNL1       -0.2858
     29 C          23.1184   72.7379   -0.8551 C.3     1  UNL1        0.2704
     30 C          22.9879   71.2677   -0.4541 C.3     1  UNL1        0.1967
     31 C          21.5701   71.0176    0.0691 C.3     1  UNL1        0.1715
     32 C          21.2741   72.0267    1.1843 C.3     1  UNL1        0.1694
     33 C          21.5330   73.4406    0.6578 C.3     1  UNL1        0.1761
     34 O          23.2335   70.4378   -1.5908 O.3     1  UNL1       -0.3775
     35 O          21.4760   69.6878    0.5842 O.3     1  UNL1       -0.3794
     36 O          22.1230   71.7654    2.3028 O.3     1  UNL1       -0.3794
     37 O          22.9032   73.5708    0.2818 O.3     1  UNL1       -0.3258
     38 H          24.1319   70.6334   -1.8900 H       1  UNL1        0.2106
     39 H          21.6808   69.0899   -0.1457 H       1  UNL1        0.2105
     40 H          21.9301   70.8654    2.5963 H       1  UNL1        0.2105
     41 C          21.2075   74.4584    1.7533 C.3     1  UNL1        0.1693
     42 O          20.3858   75.4938    1.2113 O.3     1  UNL1       -0.3794
     43 H          20.2033   76.1124    1.9320 H       1  UNL1        0.2105
@<TRIPOS>BOND
     1    15    16   ar
     2    15    20   ar
     3    15     6    1
     4    16    17   ar
     5    16    21    2
     6    17    18   ar
     7    17    23    1
     8    18    19   ar
     9    18    22    2
    10    19    20   ar
    11     6     7    1
    12     6    11    1
    13     7     8    1
    14     7     9    1
    15     8    13    1
    16     9    10    1
    17     9    12    1
    18    10    11    1
    19    10     5    1
    20    12    14    1
    21     5     4    1
    22     4     1    1
    23     1     2    2
    24     1     3    1
    25     1    24    1
    26    24    25    1
    27    25    26    2
    28    25    27    1
    29    25    28    1
    30    28    29    1
    31    29    30    1
    32    29    37    1
    33    30    31    1
    34    30    34    1
    35    31    32    1
    36    31    35    1
    37    32    33    1
    38    32    36    1
    39    33    41    1
    40    33    37    1
    41    41    42    1
    42    34    38    1
    43    35    39    1
    44    36    40    1
    45    42    43    1
@<TRIPOS>MOLECULE
GDU
 43 45 0 0 0
SMALL
GASTEIGER

@<TRIPOS>ATOM
      1 P          22.4950   71.9021   -3.2989 P.3     1  UNL1        0.2189
      2 O          23.2839   73.0914   -3.6898 O.2     1  UNL1       -0.5170
      3 O          23.4726   70.6294   -3.1671 O.3     1  UNL1       -0.4371
      4 O          21.7760   72.1751   -1.8863 O.3     1  UNL1       -0.3112
      5 C          22.5884   73.1169   -1.1837 C.3     1  UNL1        0.1811
      6 C          22.5803   73.4269    2.3983 C.3     1  UNL1        0.2383
      7 C          21.2169   72.7707    2.0615 C.3     1  UNL1        0.1895
      8 O          20.7882   71.9128    3.1214 O.3     1  UNL1       -0.3779
      9 C          21.5563   71.9510    0.7894 C.3     1  UNL1        0.1713
     10 C          22.8312   72.6197    0.2424 C.3     1  UNL1        0.1764
     11 O          23.1371   73.7314    1.1019 O.3     1  UNL1       -0.3308
     12 O          21.8052   70.5850    1.1269 O.3     1  UNL1       -0.3794
     13 H          19.9384   71.5382    2.8505 H       1  UNL1        0.2106
     14 H          20.9908   70.2401    1.5174 H       1  UNL1        0.2105
     15 N          22.3875   74.6512    3.1773 N.ar    1  UNL1       -0.2551
     16 C          21.3094   75.4224    2.9515 C.ar    1  UNL1        0.3323
     17 N          21.1067   76.5512    3.6563 N.ar    1  UNL1       -0.2743
     18 C          21.9912   76.9331    4.5976 C.ar    1  UNL1        0.2626
     19 C          23.1344   76.1336    4.8423 C.ar    1  UNL1        0.0795
     20 C          23.3112   75.0042    4.1241 C.ar    1  UNL1        0.0869
     21 O          20.5026   75.0906    2.1059 O.2     1  UNL1       -0.2464
     22 O          21.8111   77.9572    5.2327 O.2     1  UNL1       -0.2670
     23 H          20.3209   77.0936    3.4830 H       1  UNL1        0.1734
     24 O          21.3797   71.6064   -4.4219 O.3     1  UNL1       -0.2703
     25 P          21.3787   72.8672   -5.4220 P.3     1  UNL1        0.2208
     26 O          21.2926   74.1187   -4.6375 O.2     1  UNL1       -0.5170
     27 O          22.7383   72.8681   -6.2854 O.3     1  UNL1       -0.4371
     28 O          20.1150   72.7662   -6.4134 O.3     1  UNL1       -0.2858
     29 C          20.5694   73.1661   -7.7070 C.3     1  UNL1        0.2704
     30 C          19.7254   74.3416   -8.2022 C.3     1  UNL1        0.1967
     31 C          18.2556   73.9133   -8.2538 C.3     1  UNL1        0.1715
     32 C          18.1471   72.6339   -9.0911 C.3     1  UNL1        0.1694
     33 C          19.1101   71.5865   -8.5267 C.3     1  UNL1        0.1761
     34 O          19.8724   75.4464   -7.3085 O.3     1  UNL1       -0.3775
     35 O          17.4743   74.9494   -8.8525 O.3     1  UNL1       -0.3794
     36 O          18.4874   72.9207  -10.4483 O.3     1  UNL1       -0.3794
     37 O          20.4500   72.0698   -8.6106 O.3     1  UNL1       -0.3258
     38 H          20.8114   75.6769   -7.3019 H       1  UNL1        0.2106
     39 H          17.5817   75.7349   -8.3013 H       1  UNL1        0.2105
     40 H          17.8605   73.5868  -10.7592 H       1  UNL1        0.2105
     41 C          18.9847   70.2929   -9.3348 C.3     1  UNL1        0.1693
     42 O          20.0692   69.4218   -9.0090 O.3     1  UNL1       -0.3794
     43 H          19.9528   68.6203   -9.5375 H       1  UNL1        0.2105
@<TRIPOS>BOND
     1    15    16   ar
     2    15    20   ar
     3    15     6    1
     4    16    17   ar
     5    16    21    2
     6    17    18   ar
     7    17    23    1
     8    18    19   ar
     9    18    22    2
    10    19    20   ar
    11     6     7    1
    12     6    11    1
    13     7     8    1
    14     7     9    1
    15     8    13    1
    16     9    10    1
    17     9    12    1
    18    10    11    1
    19    10     5    1
    20    12    14    1
    21     5     4    1
    22     4     1    1
    23     1     2    2
    24     1     3    1
    25     1    24    1
    26    24    25    1
    27    25    26    2
    28    25    27    1
    29    25    28    1
    30    28    29    1
    31    29    30    1
    32    29    37    1
    33    30    31    1
    34    30    34    1
    35    31    32    1
    36    31    35    1
    37    32    33    1
    38    32    36    1
    39    33    41    1
    40    33    37    1
    41    41    42    1
    42    34    38    1
    43    35    39    1
    44    36    40    1
    45    42    43    1
@<TRIPOS>MOLECULE
GDU
 43 45 0 0 0
SMALL
GASTEIGER

@<TRIPOS>ATOM
      1 P          13.4434   72.6914   -2.3265 P.3     1  UNL1        0.2189
      2 O          13.4959   73.0042   -3.7718 O.2     1  UNL1       -0.5170
      3 O          13.6172   74.0484   -1.4771 O.3     1  UNL1       -0.4371
      4 O          12.0271   72.0155   -1.9743 O.3     1  UNL1       -0.3112
      5 C          12.1789   71.3727   -0.7077 C.3     1  UNL1        0.1811
      6 C          11.6167   68.0484    0.5413 C.3     1  UNL1        0.2383
      7 C          10.2008   68.6720    0.4436 C.3     1  UNL1        0.1895
      8 O           9.2204   67.6699    0.1647 O.3     1  UNL1       -0.3779
      9 C          10.3557   69.6432   -0.7555 C.3     1  UNL1        0.1713
     10 C          11.8742   69.8805   -0.8513 C.3     1  UNL1        0.1764
     11 O          12.4928   69.1502    0.2221 O.3     1  UNL1       -0.3308
     12 O           9.8600   69.0414   -1.9531 O.3     1  UNL1       -0.3794
     13 H           8.3661   68.1212    0.1172 H       1  UNL1        0.2106
     14 H           8.9207   68.8637   -1.8092 H       1  UNL1        0.2105
     15 N          11.8751   67.5599    1.8968 N.ar    1  UNL1       -0.2551
     16 C          11.9627   66.2374    2.1237 C.ar    1  UNL1        0.3323
     17 N          12.2031   65.7623    3.3600 N.ar    1  UNL1       -0.2743
     18 C          12.3507   66.6090    4.3970 C.ar    1  UNL1        0.2626
     19 C          12.2552   68.0044    4.1740 C.ar    1  UNL1        0.0795
     20 C          12.0176   68.4542    2.9235 C.ar    1  UNL1        0.0869
     21 O          11.8323   65.4614    1.1980 O.2     1  UNL1       -0.2464
     22 O          12.5635   66.1796    5.5172 O.2     1  UNL1       -0.2670
     23 H          12.2675   64.8048    3.5047 H       1  UNL1        0.1734
     24 O          14.6331   71.6718   -1.9556 O.3     1  UNL1       -0.2703
     25 P          15.9098   72.1049   -2.8345 P.3     1  UNL1        0.2208
     26 O          15.5791   71.9941   -4.2723 O.2     1  UNL1       -0.5170
     27 O          16.3056   73.6279   -2.4911 O.3     1  UNL1       -0.4371
     28 O          17.1508   71.1391   -2.4923 O.3     1  UNL1       -0.2858
     29 C          17.9602   71.0714   -3.6670 C.3     1  UNL1        0.2704
     30 C          18.0072   69.6280   -4.1706 C.3     1  UNL1        0.1967
     31 C          18.5799   68.7333   -3.0669 C.3     1  UNL1        0.1715
     32 C          19.9264   69.3113   -2.6170 C.3     1  UNL1        0.1694
     33 C          19.7332   70.7794   -2.2291 C.3     1  UNL1        0.1761
     34 O          16.6874   69.1941   -4.5038 O.3     1  UNL1       -0.3775
     35 O          18.7675   67.4093   -3.5712 O.3     1  UNL1       -0.3794
     36 O          20.8690   69.2145   -3.6857 O.3     1  UNL1       -0.3794
     37 O          19.2782   71.5203   -3.3604 O.3     1  UNL1       -0.3258
     38 H          16.3645   69.7883   -5.1949 H       1  UNL1        0.2106
     39 H          17.9002   67.0915   -3.8524 H       1  UNL1        0.2105
     40 H          20.9543   68.2763   -3.8996 H       1  UNL1        0.2105
     41 C          21.0654   71.3569   -1.7455 C.3     1  UNL1        0.1693
     42 O          21.9142   70.2937   -1.3094 O.3     1  UNL1       -0.3794
     43 H          22.7412   70.6990   -1.0142 H       1  UNL1        0.2105
@<TRIPOS>BOND
     1    15    16   ar
     2    15    20   ar
     3    15     6    1
     4    16    17   ar
     5    16    21    2
     6    17    18   ar
     7    17    23    1
     8    18    19   ar
     9    18    22    2
    10    19    20   ar
    11     6     7    1
    12     6    11    1
    13     7     8    1
    14     7     9    1
    15     8    13    1
    16     9    10    1
    17     9    12    1
    18    10    11    1
    19    10     5    1
    20    12    14    1
    21     5     4    1
    22     4     1    1
    23     1     2    2
    24     1     3    1
    25     1    24    1
    26    24    25    1
    27    25    26    2
    28    25    27    1
    29    25    28    1
    30    28    29    1
    31    29    30    1
    32    29    37    1
    33    30    31    1
    34    30    34    1
    35    31    32    1
    36    31    35    1
    37    32    33    1
    38    32    36    1
    39    33    41    1
    40    33    37    1
    41    41    42    1
    42    34    38    1
    43    35    39    1
    44    36    40    1
    45    42    43    1
@<TRIPOS>MOLECULE
GDU
 43 45 0 0 0
SMALL
GASTEIGER

@<TRIPOS>ATOM
      1 P          19.4971   69.8809   -3.2543 P.3     1  UNL1        0.2189
      2 O          19.1878   71.1719   -2.6009 O.2     1  UNL1       -0.5170
      3 O          18.5388   68.7334   -2.6558 O.3     1  UNL1       -0.4371
      4 O          19.2551   70.0095   -4.8392 O.3     1  UNL1       -0.3112
      5 C          17.8491   70.1737   -5.0310 C.3     1  UNL1        0.1811
      6 C          18.8656   72.4632   -7.6102 C.3     1  UNL1        0.2383
      7 C          18.6808   71.1094   -8.3424 C.3     1  UNL1        0.1895
      8 O          18.2658   71.3137   -9.6949 O.3     1  UNL1       -0.3779
      9 C          17.5530   70.4426   -7.5125 C.3     1  UNL1        0.1713
     10 C          17.6002   71.1762   -6.1593 C.3     1  UNL1        0.1764
     11 O          18.6819   72.1220   -6.2197 O.3     1  UNL1       -0.3308
     12 O          16.2870   70.6314   -8.1477 O.3     1  UNL1       -0.3794
     13 H          18.1696   70.4370  -10.0925 H       1  UNL1        0.2106
     14 H          16.3403   70.2014   -9.0119 H       1  UNL1        0.2105
     15 N          20.2102   72.9956   -7.8373 N.ar    1  UNL1       -0.2551
     16 C          20.8383   72.7467   -9.0000 C.ar    1  UNL1        0.3323
     17 N          22.0734   73.2273   -9.2354 N.ar    1  UNL1       -0.2743
     18 C          22.7070   73.9613   -8.3006 C.ar    1  UNL1        0.2626
     19 C          22.0599   74.2267   -7.0689 C.ar    1  UNL1        0.0795
     20 C          20.8196   73.7361   -6.8604 C.ar    1  UNL1        0.0869
     21 O          20.2792   72.0865   -9.8530 O.2     1  UNL1       -0.2464
     22 O          23.8269   74.3928   -8.5109 O.2     1  UNL1       -0.2670
     23 H          22.5101   73.0415  -10.0819 H       1  UNL1        0.1734
     24 O          21.0347   69.4938   -2.9746 O.3     1  UNL1       -0.2703
     25 P          21.8520   70.8760   -2.8681 P.3     1  UNL1        0.2208
     26 O          23.3033   70.5976   -2.9408 O.2     1  UNL1       -0.5170
     27 O          21.4301   71.8437   -4.0846 O.3     1  UNL1       -0.4371
     28 O          21.5119   71.5953   -1.4692 O.3     1  UNL1       -0.2858
     29 C          22.6915   71.5220   -0.6674 C.3     1  UNL1        0.2704
     30 C          22.3230   71.0441    0.7380 C.3     1  UNL1        0.1967
     31 C          21.3140   72.0218    1.3485 C.3     1  UNL1        0.1715
     32 C          21.8962   73.4377    1.2727 C.3     1  UNL1        0.1694
     33 C          22.2956   73.7349   -0.1748 C.3     1  UNL1        0.1761
     34 O          21.7435   69.7403    0.6637 O.3     1  UNL1       -0.3775
     35 O          21.0716   71.6721    2.7128 O.3     1  UNL1       -0.3794
     36 O          23.0437   73.5284    2.1183 O.3     1  UNL1       -0.3794
     37 O          23.2973   72.8107   -0.5972 O.3     1  UNL1       -0.3258
     38 H          22.4092   69.1614    0.2679 H       1  UNL1        0.2106
     39 H          20.7189   70.7733    2.7129 H       1  UNL1        0.2105
     40 H          22.7467   73.3286    3.0156 H       1  UNL1        0.2105
     41 C          22.8467   75.1596   -0.2677 C.3     1  UNL1        0.1693
     42 O          23.8001   75.2323   -1.3293 O.3     1  UNL1       -0.3794
     43 H          24.1218   76.1439   -1.3546 H       1  UNL1        0.2105
@<TRIPOS>BOND
     1    15    16   ar
     2    15    20   ar
     3    15     6    1
     4    16    17   ar
     5    16    21    2
     6    17    18   ar
     7    17    23    1
     8    18    19   ar
     9    18    22    2
    10    19    20   ar
    11     6     7    1
    12     6    11    1
    13     7     8    1
    14     7     9    1
    15     8    13    1
    16     9    10    1
    17     9    12    1
    18    10    11    1
    19    10     5    1
    20    12    14    1
    21     5     4    1
    22     4     1    1
    23     1     2    2
    24     1     3    1
    25     1    24    1
    26    24    25    1
    27    25    26    2
    28    25    27    1
    29    25    28    1
    30    28    29    1
    31    29    30    1
    32    29    37    1
    33    30    31    1
    34    30    34    1
    35    31    32    1
    36    31    35    1
    37    32    33    1
    38    32    36    1
    39    33    41    1
    40    33    37    1
    41    41    42    1
    42    34    38    1
    43    35    39    1
    44    36    40    1
    45    42    43    1
@<TRIPOS>MOLECULE
GDU
 43 45 0 0 0
SMALL
GASTEIGER

@<TRIPOS>ATOM
      1 P          22.6572   72.0057   -3.2471 P.3     1  UNL1        0.2189
      2 O          23.6827   73.0550   -3.4386 O.2     1  UNL1       -0.5170
      3 O          23.3722   70.5651   -3.1663 O.3     1  UNL1       -0.4371
      4 O          21.8533   72.2831   -1.8820 O.3     1  UNL1       -0.3112
      5 C          22.6311   73.2120   -1.1252 C.3     1  UNL1        0.1811
      6 C          22.6034   73.3769    2.4664 C.3     1  UNL1        0.2383
      7 C          21.2411   72.7369    2.0957 C.3     1  UNL1        0.1895
      8 O          20.8054   71.8375    3.1177 O.3     1  UNL1       -0.3779
      9 C          21.5865   71.9688    0.7934 C.3     1  UNL1        0.1713
     10 C          22.8653   72.6571    0.2810 C.3     1  UNL1        0.1764
     11 O          23.1678   73.7327    1.1864 O.3     1  UNL1       -0.3308
     12 O          21.8318   70.5899    1.0768 O.3     1  UNL1       -0.3794
     13 H          19.9566   71.4755    2.8272 H       1  UNL1        0.2106
     14 H          21.0147   70.2307    1.4485 H       1  UNL1        0.2105
     15 N          22.4079   74.5689    3.2932 N.ar    1  UNL1       -0.2551
     16 C          23.1499   74.7409    4.4014 C.ar    1  UNL1        0.3323
     17 N          22.9923   75.8297    5.1770 N.ar    1  UNL1       -0.2743
     18 C          22.0766   76.7647    4.8586 C.ar    1  UNL1        0.2626
     19 C          21.2838   76.5940    3.6973 C.ar    1  UNL1        0.0795
     20 C          21.4653   75.4948    2.9348 C.ar    1  UNL1        0.0869
     21 O          23.9803   73.9062    4.7012 O.2     1  UNL1       -0.2464
     22 O          21.9300   77.7482    5.5626 O.2     1  UNL1       -0.2670
     23 H          23.5395   75.9397    5.9709 H       1  UNL1        0.1734
     24 O          21.6322   72.0256   -4.4886 O.3     1  UNL1       -0.2703
     25 P          20.3679   71.1246   -4.0645 P.3     1  UNL1        0.2208
     26 O          20.8417   69.9006   -3.3814 O.2     1  UNL1       -0.5170
     27 O          19.4221   71.9635   -3.0665 O.3     1  UNL1       -0.4371
     28 O          19.5324   70.7178   -5.3784 O.3     1  UNL1       -0.2858
     29 C          18.5352   71.7233   -5.5638 C.3     1  UNL1        0.2704
     30 C          17.1570   71.0649   -5.6439 C.3     1  UNL1        0.1967
     31 C          17.1462   70.0710   -6.8094 C.3     1  UNL1        0.1715
     32 C          17.5951   70.8011   -8.0802 C.3     1  UNL1        0.1694
     33 C          18.9421   71.4783   -7.8157 C.3     1  UNL1        0.1761
     34 O          16.8842   70.3756   -4.4225 O.3     1  UNL1       -0.3775
     35 O          15.8250   69.5567   -6.9895 O.3     1  UNL1       -0.3794
     36 O          16.6220   71.7845   -8.4353 O.3     1  UNL1       -0.3794
     37 O          18.8012   72.4375   -6.7688 O.3     1  UNL1       -0.3258
     38 H          16.9082   71.0370   -3.7176 H       1  UNL1        0.2106
     39 H          15.5806   69.1181   -6.1648 H       1  UNL1        0.2105
     40 H          15.7915   71.3146   -8.5864 H       1  UNL1        0.2105
     41 C          19.4160   72.1820   -9.0894 C.3     1  UNL1        0.1693
     42 O          18.8088   71.5665  -10.2267 O.3     1  UNL1       -0.3794
     43 H          19.1321   72.0385  -11.0064 H       1  UNL1        0.2105
@<TRIPOS>BOND
     1    15    16   ar
     2    15    20   ar
     3    15     6    1
     4    16    17   ar
     5    16    21    2
     6    17    18   ar
     7    17    23    1
     8    18    19   ar
     9    18    22    2
    10    19    20   ar
    11     6     7    1
    12     6    11    1
    13     7     8    1
    14     7     9    1
    15     8    13    1
    16     9    10    1
    17     9    12    1
    18    10    11    1
    19    10     5    1
    20    12    14    1
    21     5     4    1
    22     4     1    1
    23     1     2    2
    24     1     3    1
    25     1    24    1
    26    24    25    1
    27    25    26    2
    28    25    27    1
    29    25    28    1
    30    28    29    1
    31    29    30    1
    32    29    37    1
    33    30    31    1
    34    30    34    1
    35    31    32    1
    36    31    35    1
    37    32    33    1
    38    32    36    1
    39    33    41    1
    40    33    37    1
    41    41    42    1
    42    34    38    1
    43    35    39    1
    44    36    40    1
    45    42    43    1
@<TRIPOS>MOLECULE
GDU
 43 45 0 0 0
SMALL
GASTEIGER

@<TRIPOS>ATOM
      1 P          22.6972   70.8219   -1.1824 P.3     1  UNL1        0.2189
      2 O          23.3733   69.8515   -0.2932 O.2     1  UNL1       -0.5170
      3 O          23.4030   70.8056   -2.6296 O.3     1  UNL1       -0.4371
      4 O          21.1475   70.4199   -1.3366 O.3     1  UNL1       -0.3112
      5 C          20.6748   71.0450   -2.5309 C.3     1  UNL1        0.1811
      6 C          17.4966   71.2558   -4.1988 C.3     1  UNL1        0.2383
      7 C          17.9950   69.8174   -4.4915 C.3     1  UNL1        0.1895
      8 O          16.8952   68.9147   -4.6289 O.3     1  UNL1       -0.3779
      9 C          18.8201   69.4942   -3.2187 C.3     1  UNL1        0.1713
     10 C          19.1575   70.8768   -2.6304 C.3     1  UNL1        0.1764
     11 O          18.6135   71.8676   -3.5195 O.3     1  UNL1       -0.3308
     12 O          18.0399   68.7284   -2.2986 O.3     1  UNL1       -0.3794
     13 H          17.2716   68.0420   -4.8092 H       1  UNL1        0.2106
     14 H          17.8110   67.9021   -2.7454 H       1  UNL1        0.2105
     15 N          17.1995   71.9645   -5.4447 N.ar    1  UNL1       -0.2551
     16 C          16.0176   72.5889   -5.5912 C.ar    1  UNL1        0.3323
     17 N          15.7210   73.2507   -6.7252 N.ar    1  UNL1       -0.2743
     18 C          16.6049   73.2896   -7.7408 C.ar    1  UNL1        0.2626
     19 C          17.8515   72.6315   -7.6029 C.ar    1  UNL1        0.0795
     20 C          18.1251   71.9788   -6.4533 C.ar    1  UNL1        0.0869
     21 O          15.2104   72.5630   -4.6836 O.2     1  UNL1       -0.2464
     22 O          16.3354   73.8843   -8.7695 O.2     1  UNL1       -0.2670
     23 H          14.8649   73.6994   -6.8121 H       1  UNL1        0.1734
     24 O          22.8096   72.2978   -0.5487 O.3     1  UNL1       -0.2703
     25 P          21.9146   72.3007    0.7889 P.3     1  UNL1        0.2208
     26 O          20.5177   72.6478    0.4467 O.2     1  UNL1       -0.5170
     27 O          21.9539   70.8387    1.4637 O.3     1  UNL1       -0.4371
     28 O          22.4995   73.3844    1.8249 O.3     1  UNL1       -0.2858
     29 C          22.7328   72.6983    3.0556 C.3     1  UNL1        0.2704
     30 C          21.5529   72.9318    4.0003 C.3     1  UNL1        0.1967
     31 C          21.3972   74.4365    4.2412 C.3     1  UNL1        0.1715
     32 C          22.7399   74.9971    4.7235 C.3     1  UNL1        0.1694
     33 C          23.8302   74.6083    3.7220 C.3     1  UNL1        0.1761
     34 O          20.3586   72.4137    3.4117 O.3     1  UNL1       -0.3775
     35 O          20.3951   74.6626    5.2347 O.3     1  UNL1       -0.3794
     36 O          23.0497   74.4560    6.0085 O.3     1  UNL1       -0.3794
     37 O          23.9330   73.1870    3.6500 O.3     1  UNL1       -0.3258
     38 H          20.5041   71.4681    3.2716 H       1  UNL1        0.2106
     39 H          19.5740   74.2846    4.8951 H       1  UNL1        0.2105
     40 H          22.3356   74.7204    6.6030 H       1  UNL1        0.2105
     41 C          25.1696   75.1925    4.1765 C.3     1  UNL1        0.1693
     42 O          25.8313   74.2570    5.0298 O.3     1  UNL1       -0.3794
     43 H          26.6692   74.6621    5.2928 H       1  UNL1        0.2105
@<TRIPOS>BOND
     1    15    16   ar
     2    15    20   ar
     3    15     6    1
     4    16    17   ar
     5    16    21    2
     6    17    18   ar
     7    17    23    1
     8    18    19   ar
     9    18    22    2
    10    19    20   ar
    11     6     7    1
    12     6    11    1
    13     7     8    1
    14     7     9    1
    15     8    13    1
    16     9    10    1
    17     9    12    1
    18    10    11    1
    19    10     5    1
    20    12    14    1
    21     5     4    1
    22     4     1    1
    23     1     2    2
    24     1     3    1
    25     1    24    1
    26    24    25    1
    27    25    26    2
    28    25    27    1
    29    25    28    1
    30    28    29    1
    31    29    30    1
    32    29    37    1
    33    30    31    1
    34    30    34    1
    35    31    32    1
    36    31    35    1
    37    32    33    1
    38    32    36    1
    39    33    41    1
    40    33    37    1
    41    41    42    1
    42    34    38    1
    43    35    39    1
    44    36    40    1
    45    42    43    1
@<TRIPOS>MOLECULE
GDU
 43 45 0 0 0
SMALL
GASTEIGER

@<TRIPOS>ATOM
      1 P          22.1276   74.1371   -6.5389 P.3     1  UNL1        0.2189
      2 O          22.7435   72.8168   -6.7973 O.2     1  UNL1       -0.5170
      3 O          23.2471   75.2868   -6.6724 O.3     1  UNL1       -0.4371
      4 O          20.9561   74.4020   -7.6086 O.3     1  UNL1       -0.3112
      5 C          21.1607   73.4824   -8.6824 C.3     1  UNL1        0.1811
      6 C          18.2572   71.7740   -7.4259 C.3     1  UNL1        0.2383
      7 C          17.7047   73.0947   -8.0204 C.3     1  UNL1        0.1895
      8 O          16.3780   72.9131   -8.5204 O.3     1  UNL1       -0.3779
      9 C          18.6991   73.3709   -9.1781 C.3     1  UNL1        0.1713
     10 C          19.9495   72.5554   -8.8000 C.3     1  UNL1        0.1764
     11 O          19.6883   71.9297   -7.5318 O.3     1  UNL1       -0.3308
     12 O          18.1566   72.9202  -10.4209 O.3     1  UNL1       -0.3794
     13 H          16.0939   73.7675   -8.8742 H       1  UNL1        0.2106
     14 H          17.3464   73.4256  -10.5725 H       1  UNL1        0.2105
     15 N          17.8564   71.6288   -6.0255 N.ar    1  UNL1       -0.2551
     16 C          17.0827   70.5923   -5.6574 C.ar    1  UNL1        0.3323
     17 N          16.7031   70.4337   -4.3758 N.ar    1  UNL1       -0.2743
     18 C          17.0863   71.3216   -3.4382 C.ar    1  UNL1        0.2626
     19 C          17.8966   72.4215   -3.8125 C.ar    1  UNL1        0.0795
     20 C          18.2665   72.5543   -5.1040 C.ar    1  UNL1        0.0869
     21 O          16.7296   69.7830   -6.4919 O.2     1  UNL1       -0.2464
     22 O          16.7392   71.1815   -2.2787 O.2     1  UNL1       -0.2670
     23 H          16.1482   69.6774   -4.1271 H       1  UNL1        0.1734
     24 O          21.5125   74.1593   -5.0510 O.3     1  UNL1       -0.2703
     25 P          22.1119   72.8806   -4.2792 P.3     1  UNL1        0.2208
     26 O          21.6001   71.6419   -4.9058 O.2     1  UNL1       -0.5170
     27 O          23.7198   72.9034   -4.3717 O.3     1  UNL1       -0.4371
     28 O          21.6639   72.9264   -2.7341 O.3     1  UNL1       -0.2858
     29 C          22.8090   72.5686   -1.9593 C.3     1  UNL1        0.2704
     30 C          22.6276   71.1543   -1.4058 C.3     1  UNL1        0.1967
     31 C          21.3595   71.1136   -0.5475 C.3     1  UNL1        0.1715
     32 C          21.4469   72.2211    0.5086 C.3     1  UNL1        0.1694
     33 C          21.7160   73.5558   -0.1908 C.3     1  UNL1        0.1761
     34 O          22.5050   70.2291   -2.4876 O.3     1  UNL1       -0.3775
     35 O          21.2552   69.8413    0.0950 O.3     1  UNL1       -0.3794
     36 O          22.5084   71.9306    1.4189 O.3     1  UNL1       -0.3794
     37 O          22.9613   73.4931   -0.8847 O.3     1  UNL1       -0.3258
     38 H          23.3202   70.2937   -3.0036 H       1  UNL1        0.2106
     39 H          21.2152   69.1770   -0.6046 H       1  UNL1        0.2105
     40 H          22.2999   71.0817    1.8303 H       1  UNL1        0.2105
     41 C          21.7711   74.6743    0.8522 C.3     1  UNL1        0.1693
     42 O          23.1041   74.7931    1.3521 O.3     1  UNL1       -0.3794
     43 H          23.0958   75.5072    2.0043 H       1  UNL1        0.2105
@<TRIPOS>BOND
     1    15    16   ar
     2    15    20   ar
     3    15     6    1
     4    16    17   ar
     5    16    21    2
     6    17    18   ar
     7    17    23    1
     8    18    19   ar
     9    18    22    2
    10    19    20   ar
    11     6     7    1
    12     6    11    1
    13     7     8    1
    14     7     9    1
    15     8    13    1
    16     9    10    1
    17     9    12    1
    18    10    11    1
    19    10     5    1
    20    12    14    1
    21     5     4    1
    22     4     1    1
    23     1     2    2
    24     1     3    1
    25     1    24    1
    26    24    25    1
    27    25    26    2
    28    25    27    1
    29    25    28    1
    30    28    29    1
    31    29    30    1
    32    29    37    1
    33    30    31    1
    34    30    34    1
    35    31    32    1
    36    31    35    1
    37    32    33    1
    38    32    36    1
    39    33    41    1
    40    33    37    1
    41    41    42    1
    42    34    38    1
    43    35    39    1
    44    36    40    1
    45    42    43    1
@<TRIPOS>MOLECULE
GDU
 43 45 0 0 0
SMALL
GASTEIGER

@<TRIPOS>ATOM
      1 P          21.3481   74.8481   -4.6189 P.3     1  UNL1        0.2189
      2 O          20.1579   75.5640   -4.1085 O.2     1  UNL1       -0.5170
      3 O          22.6817   75.5734   -4.0820 O.3     1  UNL1       -0.4371
      4 O          21.3208   73.3250   -4.1031 O.3     1  UNL1       -0.3112
      5 C          20.8913   73.3570   -2.7411 C.3     1  UNL1        0.1811
      6 C          22.1424   72.0382    0.3610 C.3     1  UNL1        0.2383
      7 C          21.1536   70.9592   -0.1499 C.3     1  UNL1        0.1895
      8 O          21.5599   69.6550    0.2711 O.3     1  UNL1       -0.3779
      9 C          21.2778   71.1074   -1.6887 C.3     1  UNL1        0.1713
     10 C          21.8466   72.5251   -1.8835 C.3     1  UNL1        0.1764
     11 O          21.9770   73.1197   -0.5806 O.3     1  UNL1       -0.3308
     12 O          22.1727   70.1253   -2.2146 O.3     1  UNL1       -0.3794
     13 H          20.9060   69.0332   -0.0775 H       1  UNL1        0.2106
     14 H          21.7916   69.2608   -2.0098 H       1  UNL1        0.2105
     15 N          21.7834   72.4715    1.7124 N.ar    1  UNL1       -0.2551
     16 C          22.2905   71.8247    2.7768 C.ar    1  UNL1        0.3323
     17 N          21.9792   72.2052    4.0299 N.ar    1  UNL1       -0.2743
     18 C          21.1420   73.2396    4.2383 C.ar    1  UNL1        0.2626
     19 C          20.5957   73.9265    3.1266 C.ar    1  UNL1        0.0795
     20 C          20.9279   73.5269    1.8806 C.ar    1  UNL1        0.0869
     21 O          23.0473   70.8901    2.6045 O.2     1  UNL1       -0.2464
     22 O          20.8559   73.5816    5.3721 O.2     1  UNL1       -0.2670
     23 H          22.3577   71.7297    4.7864 H       1  UNL1        0.1734
     24 O          21.3375   74.8711   -6.2288 O.3     1  UNL1       -0.2703
     25 P          21.7144   73.3854   -6.7192 P.3     1  UNL1        0.2208
     26 O          22.1185   73.4234   -8.1420 O.2     1  UNL1       -0.5170
     27 O          22.9331   72.8202   -5.8307 O.3     1  UNL1       -0.4371
     28 O          20.4362   72.4224   -6.5490 O.3     1  UNL1       -0.2858
     29 C          19.4120   72.9378   -7.4005 C.3     1  UNL1        0.2704
     30 C          18.0754   72.9205   -6.6572 C.3     1  UNL1        0.1967
     31 C          17.7569   71.4821   -6.2377 C.3     1  UNL1        0.1715
     32 C          17.8255   70.5834   -7.4775 C.3     1  UNL1        0.1694
     33 C          19.1830   70.7767   -8.1578 C.3     1  UNL1        0.1761
     34 O          18.1616   73.7509   -5.4979 O.3     1  UNL1       -0.3775
     35 O          16.4452   71.4260   -5.6730 O.3     1  UNL1       -0.3794
     36 O          16.7778   70.9360   -8.3819 O.3     1  UNL1       -0.3794
     37 O          19.3235   72.1341   -8.5747 O.3     1  UNL1       -0.3258
     38 H          18.3700   74.6426   -5.8083 H       1  UNL1        0.2106
     39 H          16.4451   72.0130   -4.9064 H       1  UNL1        0.2105
     40 H          15.9450   70.8046   -7.9103 H       1  UNL1        0.2105
     41 C          19.2754   69.8580   -9.3782 C.3     1  UNL1        0.1693
     42 O          18.6425   70.4855  -10.4948 O.3     1  UNL1       -0.3794
     43 H          18.7231   69.8759  -11.2412 H       1  UNL1        0.2105
@<TRIPOS>BOND
     1    15    16   ar
     2    15    20   ar
     3    15     6    1
     4    16    17   ar
     5    16    21    2
     6    17    18   ar
     7    17    23    1
     8    18    19   ar
     9    18    22    2
    10    19    20   ar
    11     6     7    1
    12     6    11    1
    13     7     8    1
    14     7     9    1
    15     8    13    1
    16     9    10    1
    17     9    12    1
    18    10    11    1
    19    10     5    1
    20    12    14    1
    21     5     4    1
    22     4     1    1
    23     1     2    2
    24     1     3    1
    25     1    24    1
    26    24    25    1
    27    25    26    2
    28    25    27    1
    29    25    28    1
    30    28    29    1
    31    29    30    1
    32    29    37    1
    33    30    31    1
    34    30    34    1
    35    31    32    1
    36    31    35    1
    37    32    33    1
    38    32    36    1
    39    33    41    1
    40    33    37    1
    41    41    42    1
    42    34    38    1
    43    35    39    1
    44    36    40    1
    45    42    43    1
@<TRIPOS>MOLECULE
GDU
 43 45 0 0 0
SMALL
GASTEIGER

@<TRIPOS>ATOM
      1 P          21.9785   73.9963   -5.9692 P.3     1  UNL1        0.2189
      2 O          22.6180   72.7001   -6.2860 O.2     1  UNL1       -0.5170
      3 O          22.9988   75.1951   -6.3083 O.3     1  UNL1       -0.4371
      4 O          20.6419   74.1646   -6.8477 O.3     1  UNL1       -0.3112
      5 C          20.8487   73.4368   -8.0594 C.3     1  UNL1        0.1811
      6 C          17.8663   71.6945   -7.0611 C.3     1  UNL1        0.2383
      7 C          17.3611   72.8341   -7.9825 C.3     1  UNL1        0.1895
      8 O          16.1737   72.4417   -8.6748 O.3     1  UNL1       -0.3779
      9 C          18.5459   73.0037   -8.9689 C.3     1  UNL1        0.1713
     10 C          19.7450   72.3902   -8.2224 C.3     1  UNL1        0.1764
     11 O          19.2774   71.9680   -6.9296 O.3     1  UNL1       -0.3308
     12 O          18.2895   72.2967  -10.1839 O.3     1  UNL1       -0.3794
     13 H          15.9126   73.1913   -9.2277 H       1  UNL1        0.2106
     14 H          17.4955   72.6875  -10.5732 H       1  UNL1        0.2105
     15 N          17.2058   71.7524   -5.7560 N.ar    1  UNL1       -0.2551
     16 C          17.3632   70.7414   -4.8835 C.ar    1  UNL1        0.3323
     17 N          16.7698   70.7716   -3.6757 N.ar    1  UNL1       -0.2743
     18 C          15.9965   71.8168   -3.3240 C.ar    1  UNL1        0.2626
     19 C          15.8170   72.8863   -4.2351 C.ar    1  UNL1        0.0795
     20 C          16.4270   72.8326   -5.4382 C.ar    1  UNL1        0.0869
     21 O          18.0582   69.7921   -5.1864 O.2     1  UNL1       -0.2464
     22 O          15.4551   71.8429   -2.2328 O.2     1  UNL1       -0.2670
     23 H          16.8978   70.0352   -3.0567 H       1  UNL1        0.1734
     24 O          21.6027   74.0399   -4.4042 O.3     1  UNL1       -0.2703
     25 P          22.4379   72.8638   -3.6907 P.3     1  UNL1        0.2208
     26 O          21.7947   71.5615   -3.9725 O.2     1  UNL1       -0.5170
     27 O          23.9438   72.8527   -4.2620 O.3     1  UNL1       -0.4371
     28 O          22.4700   73.1148   -2.1014 O.3     1  UNL1       -0.2858
     29 C          21.2738   72.5461   -1.5672 C.3     1  UNL1        0.2704
     30 C          20.6863   73.4899   -0.5168 C.3     1  UNL1        0.1967
     31 C          21.7218   73.7101    0.5904 C.3     1  UNL1        0.1715
     32 C          22.1713   72.3437    1.1198 C.3     1  UNL1        0.1694
     33 C          22.6484   71.4869   -0.0556 C.3     1  UNL1        0.1761
     34 O          20.3610   74.7407   -1.1256 O.3     1  UNL1       -0.3775
     35 O          21.1370   74.4697    1.6504 O.3     1  UNL1       -0.3794
     36 O          21.0760   71.7003    1.7727 O.3     1  UNL1       -0.3794
     37 O          21.5735   71.2857   -0.9721 O.3     1  UNL1       -0.3258
     38 H          19.7137   74.5535   -1.8190 H       1  UNL1        0.2106
     39 H          20.8592   75.3127    1.2704 H       1  UNL1        0.2105
     40 H          20.8060   72.2764    2.4996 H       1  UNL1        0.2105
     41 C          23.1319   70.1320    0.4663 C.3     1  UNL1        0.1693
     42 O          22.0154   69.2526    0.6119 O.3     1  UNL1       -0.3794
     43 H          22.3623   68.4121    0.9412 H       1  UNL1        0.2105
@<TRIPOS>BOND
     1    15    16   ar
     2    15    20   ar
     3    15     6    1
     4    16    17   ar
     5    16    21    2
     6    17    18   ar
     7    17    23    1
     8    18    19   ar
     9    18    22    2
    10    19    20   ar
    11     6     7    1
    12     6    11    1
    13     7     8    1
    14     7     9    1
    15     8    13    1
    16     9    10    1
    17     9    12    1
    18    10    11    1
    19    10     5    1
    20    12    14    1
    21     5     4    1
    22     4     1    1
    23     1     2    2
    24     1     3    1
    25     1    24    1
    26    24    25    1
    27    25    26    2
    28    25    27    1
    29    25    28    1
    30    28    29    1
    31    29    30    1
    32    29    37    1
    33    30    31    1
    34    30    34    1
    35    31    32    1
    36    31    35    1
    37    32    33    1
    38    32    36    1
    39    33    41    1
    40    33    37    1
    41    41    42    1
    42    34    38    1
    43    35    39    1
    44    36    40    1
    45    42    43    1
@<TRIPOS>MOLECULE
GDU
 43 45 0 0 0
SMALL
GASTEIGER

@<TRIPOS>ATOM
      1 P          19.3529   69.9864   -3.4206 P.3     1  UNL1        0.2189
      2 O          19.4727   69.3181   -4.7354 O.2     1  UNL1       -0.5170
      3 O          18.4647   69.0747   -2.4343 O.3     1  UNL1       -0.4371
      4 O          20.8170   70.1926   -2.7876 O.3     1  UNL1       -0.3112
      5 C          20.6318   70.4720   -1.3990 C.3     1  UNL1        0.1811
      6 C          21.5399   73.3033    0.6224 C.3     1  UNL1        0.2383
      7 C          22.8564   72.8921   -0.0852 C.3     1  UNL1        0.1895
      8 O          23.6934   74.0296   -0.3061 O.3     1  UNL1       -0.3779
      9 C          22.3373   72.3181   -1.4292 C.3     1  UNL1        0.1713
     10 C          20.8672   71.9613   -1.1408 C.3     1  UNL1        0.1764
     11 O          20.6141   72.2631    0.2423 O.3     1  UNL1       -0.3308
     12 O          22.4270   73.3027   -2.4609 O.3     1  UNL1       -0.3794
     13 H          24.4918   73.7070   -0.7469 H       1  UNL1        0.2106
     14 H          23.3628   73.5271   -2.5533 H       1  UNL1        0.2105
     15 N          21.7189   73.3289    2.0751 N.ar    1  UNL1       -0.2551
     16 C          21.8417   72.1737    2.7523 C.ar    1  UNL1        0.3323
     17 N          22.0107   72.1696    4.0877 N.ar    1  UNL1       -0.2743
     18 C          22.0498   73.3293    4.7717 C.ar    1  UNL1        0.2626
     19 C          21.9160   74.5536    4.0723 C.ar    1  UNL1        0.0795
     20 C          21.7518   74.5292    2.7325 C.ar    1  UNL1        0.0869
     21 O          21.8089   71.1197    2.1489 O.2     1  UNL1       -0.2464
     22 O          22.1980   73.3264    5.9811 O.2     1  UNL1       -0.2670
     23 H          22.1020   71.3267    4.5599 H       1  UNL1        0.1734
     24 O          18.6422   71.4186   -3.6105 O.3     1  UNL1       -0.2703
     25 P          17.5895   71.2608   -4.8176 P.3     1  UNL1        0.2208
     26 O          17.5139   69.8400   -5.2233 O.2     1  UNL1       -0.5170
     27 O          16.1368   71.7574   -4.3307 O.3     1  UNL1       -0.4371
     28 O          18.0685   72.1525   -6.0688 O.3     1  UNL1       -0.2858
     29 C          17.7040   71.4385   -7.2508 C.3     1  UNL1        0.2704
     30 C          18.9520   71.1852   -8.0979 C.3     1  UNL1        0.1967
     31 C          19.5940   72.5295   -8.4544 C.3     1  UNL1        0.1715
     32 C          18.5325   73.4216   -9.1076 C.3     1  UNL1        0.1694
     33 C          17.3161   73.5070   -8.1822 C.3     1  UNL1        0.1761
     34 O          19.8804   70.3912   -7.3569 O.3     1  UNL1       -0.3775
     35 O          20.6746   72.3188   -9.3658 O.3     1  UNL1       -0.3794
     36 O          18.1452   72.8622  -10.3634 O.3     1  UNL1       -0.3794
     37 O          16.7610   72.2058   -7.9956 O.3     1  UNL1       -0.3258
     38 H          19.4325   69.5600   -7.1485 H       1  UNL1        0.2106
     39 H          21.3098   71.7452   -8.9189 H       1  UNL1        0.2105
     40 H          18.9411   72.8224  -10.9095 H       1  UNL1        0.2105
     41 C          16.2634   74.4236   -8.8097 C.3     1  UNL1        0.1693
     42 O          15.3160   73.6350   -9.5319 O.3     1  UNL1       -0.3794
     43 H          14.6714   74.2487   -9.9101 H       1  UNL1        0.2105
@<TRIPOS>BOND
     1    15    16   ar
     2    15    20   ar
     3    15     6    1
     4    16    17   ar
     5    16    21    2
     6    17    18   ar
     7    17    23    1
     8    18    19   ar
     9    18    22    2
    10    19    20   ar
    11     6     7    1
    12     6    11    1
    13     7     8    1
    14     7     9    1
    15     8    13    1
    16     9    10    1
    17     9    12    1
    18    10    11    1
    19    10     5    1
    20    12    14    1
    21     5     4    1
    22     4     1    1
    23     1     2    2
    24     1     3    1
    25     1    24    1
    26    24    25    1
    27    25    26    2
    28    25    27    1
    29    25    28    1
    30    28    29    1
    31    29    30    1
    32    29    37    1
    33    30    31    1
    34    30    34    1
    35    31    32    1
    36    31    35    1
    37    32    33    1
    38    32    36    1
    39    33    41    1
    40    33    37    1
    41    41    42    1
    42    34    38    1
    43    35    39    1
    44    36    40    1
    45    42    43    1
