@<TRIPOS>MOLECULE
UD1
 46 48 0 0 0
SMALL
GASTEIGER

@<TRIPOS>ATOM
      1 P          21.7047   70.8000   -2.5515 P.3     1  UNL1        0.2189
      2 O          23.1763   70.9173   -2.6487 O.2     1  UNL1       -0.5170
      3 O          21.2695   69.2723   -2.8144 O.3     1  UNL1       -0.4371
      4 O          21.0172   71.7503   -3.6547 O.3     1  UNL1       -0.3112
      5 C          19.9780   72.4710   -2.9905 C.3     1  UNL1        0.1811
      6 C          17.9305   71.3596   -5.7290 C.3     1  UNL1        0.2383
      7 C          18.0209   70.1317   -4.7887 C.3     1  UNL1        0.1895
      8 O          16.8370   69.3373   -4.8700 O.3     1  UNL1       -0.3779
      9 C          18.1453   70.7982   -3.3939 C.3     1  UNL1        0.1713
     10 C          18.6476   72.2218   -3.7027 C.3     1  UNL1        0.1764
     11 O          18.8302   72.3137   -5.1259 O.3     1  UNL1       -0.3308
     12 O          16.8730   70.8397   -2.7439 O.3     1  UNL1       -0.3794
     13 H          16.9570   68.5928   -4.2644 H       1  UNL1        0.2106
     14 H          16.5862   69.9234   -2.6328 H       1  UNL1        0.2105
     15 N          18.3749   71.0134   -7.0796 N.ar    1  UNL1       -0.2551
     16 C          17.4705   70.6541   -8.0071 C.ar    1  UNL1        0.3323
     17 N          17.8503   70.3343   -9.2583 N.ar    1  UNL1       -0.2743
     18 C          19.1543   70.3607   -9.6002 C.ar    1  UNL1        0.2626
     19 C          20.1176   70.7314   -8.6320 C.ar    1  UNL1        0.0795
     20 C          19.7085   71.0525   -7.3859 C.ar    1  UNL1        0.0869
     21 O          16.2907   70.6255   -7.7139 O.2     1  UNL1       -0.2464
     22 O          19.4993   70.0671  -10.7299 O.2     1  UNL1       -0.2670
     23 H          17.1839   70.0820   -9.9159 H       1  UNL1        0.1734
     24 O          21.2263   71.2502   -1.0827 O.3     1  UNL1       -0.2703
     25 P          22.2868   70.6361   -0.0398 P.3     1  UNL1        0.2208
     26 O          23.5513   70.3308   -0.7446 O.2     1  UNL1       -0.5170
     27 O          21.6902   69.2847    0.6003 O.3     1  UNL1       -0.4371
     28 O          22.5694   71.7035    1.1312 O.3     1  UNL1       -0.2865
     29 C          21.7362   72.8345    0.8711 C.3     1  UNL1        0.2611
     30 C          22.6074   74.0146    0.4370 C.3     1  UNL1        0.1582
     31 C          23.6152   74.3291    1.5484 C.3     1  UNL1        0.1625
     32 C          22.8503   74.5313    2.8607 C.3     1  UNL1        0.1686
     33 C          21.9629   73.3107    3.1135 C.3     1  UNL1        0.1760
     34 O          24.3334   75.5199    1.2205 O.3     1  UNL1       -0.3801
     35 O          23.7785   74.6802    3.9368 O.3     1  UNL1       -0.3794
     36 O          21.0165   73.1750    2.0541 O.3     1  UNL1       -0.3263
     37 H          24.9546   75.6797    1.9443 H       1  UNL1        0.2105
     38 H          23.2559   74.8040    4.7418 H       1  UNL1        0.2105
     39 C          23.4176   74.5635   -1.7938 C.2     1  UNL1        0.2231
     40 C          24.1555   74.2062   -3.0588 C.3     1  UNL1        0.0946
     41 N          23.3246   73.6682   -0.7918 N.am    1  UNL1       -0.2994
     42 O          22.9068   75.6571   -1.6781 O.2     1  UNL1       -0.2751
     43 H          23.7330   72.7928   -0.8843 H       1  UNL1        0.1496
     44 C          21.2189   73.4882    4.4387 C.3     1  UNL1        0.1693
     45 O          21.8546   72.7051    5.4509 O.3     1  UNL1       -0.3794
     46 H          21.3559   72.8448    6.2672 H       1  UNL1        0.2105
@<TRIPOS>BOND
     1    29    30    1
     2    29    28    1
     3    29    36    1
     4    30    31    1
     5    30    41    1
     6    31    32    1
     7    31    34    1
     8    32    33    1
     9    32    35    1
    10    33    44    1
    11    33    36    1
    12    44    45    1
    13    39    40    1
    14    39    41   am
    15    39    42    2
    16    41    43    1
    17    28    25    1
    18    34    37    1
    19    35    38    1
    20    45    46    1
    21    15    16   ar
    22    15    20   ar
    23    15     6    1
    24    16    17   ar
    25    16    21    2
    26    17    18   ar
    27    17    23    1
    28    18    19   ar
    29    18    22    2
    30    19    20   ar
    31     6     7    1
    32     6    11    1
    33     7     8    1
    34     7     9    1
    35     8    13    1
    36     9    10    1
    37     9    12    1
    38    10    11    1
    39    10     5    1
    40    12    14    1
    41     5     4    1
    42     4     1    1
    43     1     2    2
    44     1     3    1
    45     1    24    1
    46    24    25    1
    47    25    26    2
    48    25    27    1
@<TRIPOS>MOLECULE
UD1
 46 48 0 0 0
SMALL
GASTEIGER

@<TRIPOS>ATOM
      1 P          22.9203   71.2839   -1.7177 P.3     1  UNL1        0.2189
      2 O          23.2231   72.7140   -1.4900 O.2     1  UNL1       -0.5170
      3 O          23.4425   70.8507   -3.1779 O.3     1  UNL1       -0.4371
      4 O          21.3295   71.0518   -1.6271 O.3     1  UNL1       -0.3112
      5 C          20.9531   70.3075   -2.7867 C.3     1  UNL1        0.1811
      6 C          18.4369   70.8477   -5.2976 C.3     1  UNL1        0.2383
      7 C          18.0572   69.4910   -4.6530 C.3     1  UNL1        0.1895
      8 O          16.6442   69.2868   -4.6868 O.3     1  UNL1       -0.3779
      9 C          18.5554   69.6722   -3.1956 C.3     1  UNL1        0.1713
     10 C          19.5978   70.8026   -3.2941 C.3     1  UNL1        0.1764
     11 O          19.7001   71.1732   -4.6795 O.3     1  UNL1       -0.3308
     12 O          17.4747   70.0525   -2.3410 O.3     1  UNL1       -0.3794
     13 H          16.4752   68.4291   -4.2730 H       1  UNL1        0.2106
     14 H          16.8303   69.3326   -2.3685 H       1  UNL1        0.2105
     15 N          18.5916   70.7093   -6.7462 N.ar    1  UNL1       -0.2551
     16 C          17.5022   70.6891   -7.5336 C.ar    1  UNL1        0.3323
     17 N          17.6147   70.5668   -8.8695 N.ar    1  UNL1       -0.2743
     18 C          18.8304   70.4527   -9.4414 C.ar    1  UNL1        0.2626
     19 C          19.9854   70.4664   -8.6236 C.ar    1  UNL1        0.0795
     20 C          19.8440   70.5956   -7.2870 C.ar    1  UNL1        0.0869
     21 O          16.3989   70.7911   -7.0327 O.2     1  UNL1       -0.2464
     22 O          18.9331   70.3373  -10.6487 O.2     1  UNL1       -0.2670
     23 H          16.8184   70.5590   -9.4227 H       1  UNL1        0.1734
     24 O          23.6569   70.3943   -0.5975 O.3     1  UNL1       -0.2703
     25 P          22.7821   70.5223    0.7470 P.3     1  UNL1        0.2208
     26 O          23.5165   69.9059    1.8737 O.2     1  UNL1       -0.5170
     27 O          21.3751   69.7657    0.5467 O.3     1  UNL1       -0.4371
     28 O          22.5131   72.0764    1.0679 O.3     1  UNL1       -0.2865
     29 C          21.1605   72.1789    1.5164 C.3     1  UNL1        0.2611
     30 C          20.5795   73.5204    1.0658 C.3     1  UNL1        0.1582
     31 C          21.4298   74.6555    1.6471 C.3     1  UNL1        0.1625
     32 C          21.5304   74.4651    3.1643 C.3     1  UNL1        0.1686
     33 C          22.0428   73.0532    3.4564 C.3     1  UNL1        0.1760
     34 O          20.8132   75.9117    1.3587 O.3     1  UNL1       -0.3801
     35 O          22.4376   75.4261    3.7074 O.3     1  UNL1       -0.3794
     36 O          21.1250   72.0906    2.9391 O.3     1  UNL1       -0.3263
     37 H          21.3801   76.5956    1.7412 H       1  UNL1        0.2105
     38 H          22.4716   75.2704    4.6620 H       1  UNL1        0.2105
     39 C          19.5640   74.1581   -1.0546 C.2     1  UNL1        0.2231
     40 C          19.5807   74.2340   -2.5600 C.3     1  UNL1        0.0946
     41 N          20.5954   73.5948   -0.3965 N.am    1  UNL1       -0.2994
     42 O          18.6214   74.6036   -0.4355 O.2     1  UNL1       -0.2751
     43 H          21.3498   73.2380   -0.8918 H       1  UNL1        0.1496
     44 C          22.1778   72.8638    4.9687 C.3     1  UNL1        0.1693
     45 O          23.3639   73.5159    5.4269 O.3     1  UNL1       -0.3794
     46 H          23.4111   73.3723    6.3817 H       1  UNL1        0.2105
@<TRIPOS>BOND
     1    29    30    1
     2    29    28    1
     3    29    36    1
     4    30    31    1
     5    30    41    1
     6    31    32    1
     7    31    34    1
     8    32    33    1
     9    32    35    1
    10    33    44    1
    11    33    36    1
    12    44    45    1
    13    39    40    1
    14    39    41   am
    15    39    42    2
    16    41    43    1
    17    28    25    1
    18    34    37    1
    19    35    38    1
    20    45    46    1
    21    15    16   ar
    22    15    20   ar
    23    15     6    1
    24    16    17   ar
    25    16    21    2
    26    17    18   ar
    27    17    23    1
    28    18    19   ar
    29    18    22    2
    30    19    20   ar
    31     6     7    1
    32     6    11    1
    33     7     8    1
    34     7     9    1
    35     8    13    1
    36     9    10    1
    37     9    12    1
    38    10    11    1
    39    10     5    1
    40    12    14    1
    41     5     4    1
    42     4     1    1
    43     1     2    2
    44     1     3    1
    45     1    24    1
    46    24    25    1
    47    25    26    2
    48    25    27    1
@<TRIPOS>MOLECULE
UD1
 46 48 0 0 0
SMALL
GASTEIGER

@<TRIPOS>ATOM
      1 P          21.7691   70.6859   -0.6054 P.3     1  UNL1        0.2189
      2 O          20.8123   69.6759   -1.1084 O.2     1  UNL1       -0.5170
      3 O          23.2493   70.0530   -0.5714 O.3     1  UNL1       -0.4371
      4 O          21.3437   71.1336    0.8817 O.3     1  UNL1       -0.3112
      5 C          22.4812   70.9209    1.7192 C.3     1  UNL1        0.1811
      6 C          23.3062   73.9008    3.5542 C.3     1  UNL1        0.2383
      7 C          22.0028   74.2594    2.7972 C.3     1  UNL1        0.1895
      8 O          21.2270   75.2046    3.5347 O.3     1  UNL1       -0.3779
      9 C          21.2813   72.8885    2.7237 C.3     1  UNL1        0.1713
     10 C          22.4108   71.8598    2.9246 C.3     1  UNL1        0.1764
     11 O          23.6422   72.5920    3.0465 O.3     1  UNL1       -0.3308
     12 O          20.3062   72.7799    3.7630 O.3     1  UNL1       -0.3794
     13 H          20.4338   75.3850    3.0115 H       1  UNL1        0.2106
     14 H          19.6620   73.4854    3.6163 H       1  UNL1        0.2105
     15 N          24.3664   74.8615    3.2468 N.ar    1  UNL1       -0.2551
     16 C          25.3151   75.1225    4.1628 C.ar    1  UNL1        0.3323
     17 N          26.3045   75.9985    3.9058 N.ar    1  UNL1       -0.2743
     18 C          26.3539   76.6391    2.7204 C.ar    1  UNL1        0.2626
     19 C          25.3581   76.3782    1.7492 C.ar    1  UNL1        0.0795
     20 C          24.3802   75.4908    2.0312 C.ar    1  UNL1        0.0869
     21 O          25.2841   74.5527    5.2366 O.2     1  UNL1       -0.2464
     22 O          27.2452   77.4349    2.4888 O.2     1  UNL1       -0.2670
     23 H          26.9832   76.1711    4.5764 H       1  UNL1        0.1734
     24 O          21.7552   71.9688   -1.5764 O.3     1  UNL1       -0.2703
     25 P          21.9411   71.4182   -3.0769 P.3     1  UNL1        0.2208
     26 O          21.7039   69.9580   -3.0993 O.2     1  UNL1       -0.5170
     27 O          23.4391   71.7255   -3.5804 O.3     1  UNL1       -0.4371
     28 O          20.8886   72.1477   -4.0519 O.3     1  UNL1       -0.2865
     29 C          19.7185   71.3285   -4.0860 C.3     1  UNL1        0.2611
     30 C          18.9418   71.6108   -5.3732 C.3     1  UNL1        0.1582
     31 C          18.5641   73.0957   -5.4154 C.3     1  UNL1        0.1625
     32 C          17.8288   73.4514   -4.1188 C.3     1  UNL1        0.1686
     33 C          18.6910   73.0330   -2.9260 C.3     1  UNL1        0.1760
     34 O          17.7122   73.3415   -6.5358 O.3     1  UNL1       -0.3801
     35 O          17.5971   74.8606   -4.0719 O.3     1  UNL1       -0.3794
     36 O          18.9015   71.6218   -2.9547 O.3     1  UNL1       -0.3263
     37 H          17.5001   74.2850   -6.5238 H       1  UNL1        0.2105
     38 H          17.1341   75.0405   -3.2414 H       1  UNL1        0.2105
     39 C          19.2211   70.7435   -7.6325 C.2     1  UNL1        0.2231
     40 C          20.0811   70.4068   -8.8238 C.3     1  UNL1        0.0946
     41 N          19.7768   71.2839   -6.5309 N.am    1  UNL1       -0.2994
     42 O          18.0284   70.5273   -7.6652 O.2     1  UNL1       -0.2751
     43 H          20.7312   71.4568   -6.5044 H       1  UNL1        0.1496
     44 C          17.9798   73.4135   -1.6258 C.3     1  UNL1        0.1693
     45 O          16.5750   73.1947   -1.7692 O.3     1  UNL1       -0.3794
     46 H          16.1655   73.4464   -0.9304 H       1  UNL1        0.2105
@<TRIPOS>BOND
     1    29    30    1
     2    29    28    1
     3    29    36    1
     4    30    31    1
     5    30    41    1
     6    31    32    1
     7    31    34    1
     8    32    33    1
     9    32    35    1
    10    33    44    1
    11    33    36    1
    12    44    45    1
    13    39    40    1
    14    39    41   am
    15    39    42    2
    16    41    43    1
    17    28    25    1
    18    34    37    1
    19    35    38    1
    20    45    46    1
    21    15    16   ar
    22    15    20   ar
    23    15     6    1
    24    16    17   ar
    25    16    21    2
    26    17    18   ar
    27    17    23    1
    28    18    19   ar
    29    18    22    2
    30    19    20   ar
    31     6     7    1
    32     6    11    1
    33     7     8    1
    34     7     9    1
    35     8    13    1
    36     9    10    1
    37     9    12    1
    38    10    11    1
    39    10     5    1
    40    12    14    1
    41     5     4    1
    42     4     1    1
    43     1     2    2
    44     1     3    1
    45     1    24    1
    46    24    25    1
    47    25    26    2
    48    25    27    1
@<TRIPOS>MOLECULE
UD1
 46 48 0 0 0
SMALL
GASTEIGER

@<TRIPOS>ATOM
      1 P          21.9351   70.5783   -0.3131 P.3     1  UNL1        0.2189
      2 O          22.8487   71.4723   -1.0580 O.2     1  UNL1       -0.5170
      3 O          22.7881   69.4173    0.4059 O.3     1  UNL1       -0.4371
      4 O          20.8827   69.9148   -1.3355 O.3     1  UNL1       -0.3112
      5 C          21.0287   70.5982   -2.5812 C.3     1  UNL1        0.1811
      6 C          18.4740   70.9981   -5.0793 C.3     1  UNL1        0.2383
      7 C          18.1431   69.6463   -4.3987 C.3     1  UNL1        0.1895
      8 O          16.7371   69.3970   -4.4137 O.3     1  UNL1       -0.3779
      9 C          18.6486   69.8783   -2.9510 C.3     1  UNL1        0.1713
     10 C          19.6539   71.0382   -3.0869 C.3     1  UNL1        0.1764
     11 O          19.7318   71.3781   -4.4817 O.3     1  UNL1       -0.3308
     12 O          17.5643   70.2451   -2.0952 O.3     1  UNL1       -0.3794
     13 H          16.5990   68.5447   -3.9778 H       1  UNL1        0.2106
     14 H          16.9428   69.5049   -2.0991 H       1  UNL1        0.2105
     15 N          18.6197   70.8296   -6.5256 N.ar    1  UNL1       -0.2551
     16 C          17.5243   70.7479   -7.3007 C.ar    1  UNL1        0.3323
     17 N          17.6284   70.5967   -8.6343 N.ar    1  UNL1       -0.2743
     18 C          18.8420   70.5150   -9.2161 C.ar    1  UNL1        0.2626
     19 C          20.0035   70.5935   -8.4114 C.ar    1  UNL1        0.0795
     20 C          19.8702   70.7505   -7.0769 C.ar    1  UNL1        0.0869
     21 O          16.4228   70.8201   -6.7907 O.2     1  UNL1       -0.2464
     22 O          18.9373   70.3735  -10.4212 O.2     1  UNL1       -0.2670
     23 H          16.8277   70.5445   -9.1786 H       1  UNL1        0.1734
     24 O          21.1404   71.4282    0.7982 O.3     1  UNL1       -0.2703
     25 P          21.3616   72.9816    0.4414 P.3     1  UNL1        0.2208
     26 O          20.1117   73.7298    0.6999 O.2     1  UNL1       -0.5170
     27 O          21.7603   73.1247   -1.1119 O.3     1  UNL1       -0.4371
     28 O          22.5440   73.5802    1.3548 O.3     1  UNL1       -0.2865
     29 C          22.0247   74.7491    1.9913 C.3     1  UNL1        0.2611
     30 C          22.9908   75.9147    1.7725 C.3     1  UNL1        0.1582
     31 C          24.3608   75.5460    2.3527 C.3     1  UNL1        0.1625
     32 C          24.1757   75.1178    3.8123 C.3     1  UNL1        0.1686
     33 C          23.1223   74.0099    3.8769 C.3     1  UNL1        0.1760
     34 O          25.2285   76.6793    2.2890 O.3     1  UNL1       -0.3801
     35 O          25.4159   74.6306    4.3284 O.3     1  UNL1       -0.3794
     36 O          21.8751   74.5014    3.3876 O.3     1  UNL1       -0.3263
     37 H          26.0766   76.4032    2.6630 H       1  UNL1        0.2105
     38 H          25.2544   74.3719    5.2468 H       1  UNL1        0.2105
     39 C          24.1401   75.6416   -0.3579 C.2     1  UNL1        0.2231
     40 C          24.2739   75.9160   -1.8341 C.3     1  UNL1        0.0946
     41 N          23.1208   76.1806    0.3383 N.am    1  UNL1       -0.2994
     42 O          24.9508   74.9360    0.2034 O.2     1  UNL1       -0.2751
     43 H          22.4721   76.7455   -0.1107 H       1  UNL1        0.1496
     44 C          22.9534   73.5523    5.3272 C.3     1  UNL1        0.1693
     45 O          21.7683   72.7622    5.4429 O.3     1  UNL1       -0.3794
     46 H          21.6994   72.4953    6.3695 H       1  UNL1        0.2105
@<TRIPOS>BOND
     1    29    30    1
     2    29    28    1
     3    29    36    1
     4    30    31    1
     5    30    41    1
     6    31    32    1
     7    31    34    1
     8    32    33    1
     9    32    35    1
    10    33    44    1
    11    33    36    1
    12    44    45    1
    13    39    40    1
    14    39    41   am
    15    39    42    2
    16    41    43    1
    17    28    25    1
    18    34    37    1
    19    35    38    1
    20    45    46    1
    21    15    16   ar
    22    15    20   ar
    23    15     6    1
    24    16    17   ar
    25    16    21    2
    26    17    18   ar
    27    17    23    1
    28    18    19   ar
    29    18    22    2
    30    19    20   ar
    31     6     7    1
    32     6    11    1
    33     7     8    1
    34     7     9    1
    35     8    13    1
    36     9    10    1
    37     9    12    1
    38    10    11    1
    39    10     5    1
    40    12    14    1
    41     5     4    1
    42     4     1    1
    43     1     2    2
    44     1     3    1
    45     1    24    1
    46    24    25    1
    47    25    26    2
    48    25    27    1
@<TRIPOS>MOLECULE
UD1
 46 48 0 0 0
SMALL
GASTEIGER

@<TRIPOS>ATOM
      1 P          22.0839   71.1637   -0.1496 P.3     1  UNL1        0.2189
      2 O          23.0516   70.7753   -1.1991 O.2     1  UNL1       -0.5170
      3 O          21.6721   69.8646    0.7080 O.3     1  UNL1       -0.4371
      4 O          20.7697   71.7901   -0.8375 O.3     1  UNL1       -0.3112
      5 C          20.8245   71.4474   -2.2231 C.3     1  UNL1        0.1811
      6 C          18.3852   70.7587   -4.7732 C.3     1  UNL1        0.2383
      7 C          18.8015   69.3623   -4.2470 C.3     1  UNL1        0.1895
      8 O          17.7197   68.4354   -4.3460 O.3     1  UNL1       -0.3779
      9 C          19.1401   69.6611   -2.7633 C.3     1  UNL1        0.1713
     10 C          19.4101   71.1780   -2.7391 C.3     1  UNL1        0.1764
     11 O          19.2819   71.6587   -4.0880 O.3     1  UNL1       -0.3308
     12 O          18.0338   69.3298   -1.9211 O.3     1  UNL1       -0.3794
     13 H          18.0428   67.5901   -4.0045 H       1  UNL1        0.2106
     14 H          17.8773   68.3818   -2.0257 H       1  UNL1        0.2105
     15 N          18.5742   70.8454   -6.2217 N.ar    1  UNL1       -0.2551
     16 C          17.5515   70.5578   -7.0455 C.ar    1  UNL1        0.3323
     17 N          17.6956   70.6329   -8.3818 N.ar    1  UNL1       -0.2743
     18 C          18.8793   70.9914   -8.9185 C.ar    1  UNL1        0.2626
     19 C          19.9662   71.2911   -8.0630 C.ar    1  UNL1        0.0795
     20 C          19.7925   71.2129   -6.7262 C.ar    1  UNL1        0.0869
     21 O          16.4776   70.2329   -6.5766 O.2     1  UNL1       -0.2464
     22 O          19.0121   71.0550  -10.1267 O.2     1  UNL1       -0.2670
     23 H          16.9458   70.4265   -8.9610 H       1  UNL1        0.1734
     24 O          22.7549   72.2578    0.8207 O.3     1  UNL1       -0.2703
     25 P          21.5745   72.8500    1.7400 P.3     1  UNL1        0.2208
     26 O          20.9390   71.7488    2.4966 O.2     1  UNL1       -0.5170
     27 O          20.4737   73.5644    0.8072 O.3     1  UNL1       -0.4371
     28 O          22.1834   73.9268    2.7697 O.3     1  UNL1       -0.2865
     29 C          22.8635   73.1892    3.7868 C.3     1  UNL1        0.2611
     30 C          22.2858   73.5623    5.1532 C.3     1  UNL1        0.1582
     31 C          22.4543   75.0698    5.3738 C.3     1  UNL1        0.1625
     32 C          23.9285   75.4337    5.1677 C.3     1  UNL1        0.1686
     33 C          24.3814   74.9219    3.7987 C.3     1  UNL1        0.1760
     34 O          22.0559   75.4066    6.7040 O.3     1  UNL1       -0.3801
     35 O          24.0828   76.8530    5.2239 O.3     1  UNL1       -0.3794
     36 O          24.2544   73.5014    3.7489 O.3     1  UNL1       -0.3263
     37 H          22.1776   76.3613    6.7988 H       1  UNL1        0.2105
     38 H          25.0231   77.0377    5.0890 H       1  UNL1        0.2105
     39 C          19.9335   74.1513    4.9208 C.2     1  UNL1        0.2231
     40 C          18.4695   73.7948    4.9644 C.3     1  UNL1        0.0946
     41 N          20.8636   73.2163    5.1948 N.am    1  UNL1       -0.2994
     42 O          20.2744   75.2805    4.6397 O.2     1  UNL1       -0.2751
     43 H          20.5910   72.3127    5.4201 H       1  UNL1        0.1496
     44 C          25.8439   75.3087    3.5694 C.3     1  UNL1        0.1693
     45 O          26.5540   75.2442    4.8078 O.3     1  UNL1       -0.3794
     46 H          27.4685   75.4948    4.6194 H       1  UNL1        0.2105
@<TRIPOS>BOND
     1    29    30    1
     2    29    28    1
     3    29    36    1
     4    30    31    1
     5    30    41    1
     6    31    32    1
     7    31    34    1
     8    32    33    1
     9    32    35    1
    10    33    44    1
    11    33    36    1
    12    44    45    1
    13    39    40    1
    14    39    41   am
    15    39    42    2
    16    41    43    1
    17    28    25    1
    18    34    37    1
    19    35    38    1
    20    45    46    1
    21    15    16   ar
    22    15    20   ar
    23    15     6    1
    24    16    17   ar
    25    16    21    2
    26    17    18   ar
    27    17    23    1
    28    18    19   ar
    29    18    22    2
    30    19    20   ar
    31     6     7    1
    32     6    11    1
    33     7     8    1
    34     7     9    1
    35     8    13    1
    36     9    10    1
    37     9    12    1
    38    10    11    1
    39    10     5    1
    40    12    14    1
    41     5     4    1
    42     4     1    1
    43     1     2    2
    44     1     3    1
    45     1    24    1
    46    24    25    1
    47    25    26    2
    48    25    27    1
@<TRIPOS>MOLECULE
UD1
 46 48 0 0 0
SMALL
GASTEIGER

@<TRIPOS>ATOM
      1 P          22.4146   70.4860   -0.0007 P.3     1  UNL1        0.2189
      2 O          21.0676   69.8976   -0.1686 O.2     1  UNL1       -0.5170
      3 O          23.2259   69.6593    1.1177 O.3     1  UNL1       -0.4371
      4 O          22.2748   72.0213    0.4644 O.3     1  UNL1       -0.3112
      5 C          21.2001   72.0729    1.4039 C.3     1  UNL1        0.1811
      6 C          23.3142   73.9106    3.6580 C.3     1  UNL1        0.2383
      7 C          22.0016   74.7316    3.6005 C.3     1  UNL1        0.1895
      8 O          21.7663   75.4066    4.8368 O.3     1  UNL1       -0.3779
      9 C          20.9379   73.6287    3.3611 C.3     1  UNL1        0.1713
     10 C          21.7444   72.4500    2.7826 C.3     1  UNL1        0.1764
     11 O          23.1115   72.8802    2.6677 O.3     1  UNL1       -0.3308
     12 O          20.3138   73.2596    4.5929 O.3     1  UNL1       -0.3794
     13 H          20.9389   75.8971    4.7351 H       1  UNL1        0.2106
     14 H          19.8776   74.0520    4.9333 H       1  UNL1        0.2105
     15 N          24.4643   74.7446    3.3072 N.ar    1  UNL1       -0.2551
     16 C          25.4388   74.9497    4.2103 C.ar    1  UNL1        0.3323
     17 N          26.5101   75.7091    3.9136 N.ar    1  UNL1       -0.2743
     18 C          26.6181   76.2873    2.7004 C.ar    1  UNL1        0.2626
     19 C          25.5965   76.0846    1.7423 C.ar    1  UNL1        0.0795
     20 C          24.5355   75.3140    2.0644 C.ar    1  UNL1        0.0869
     21 O          25.3557   74.4349    5.3088 O.2     1  UNL1       -0.2464
     22 O          27.5839   76.9779    2.4328 O.2     1  UNL1       -0.2670
     23 H          27.2060   75.8424    4.5756 H       1  UNL1        0.1734
     24 O          23.2075   70.4193   -1.3992 O.3     1  UNL1       -0.2703
     25 P          22.7310   71.6893   -2.2648 P.3     1  UNL1        0.2208
     26 O          23.2938   71.5949   -3.6298 O.2     1  UNL1       -0.5170
     27 O          23.2497   73.0427   -1.5637 O.3     1  UNL1       -0.4371
     28 O          21.1238   71.7115   -2.3475 O.3     1  UNL1       -0.2865
     29 C          20.7789   71.6374   -3.7319 C.3     1  UNL1        0.2611
     30 C          19.7862   72.7525   -4.0655 C.3     1  UNL1        0.1582
     31 C          18.5396   72.5928   -3.1880 C.3     1  UNL1        0.1625
     32 C          18.0008   71.1683   -3.3565 C.3     1  UNL1        0.1686
     33 C          19.1276   70.1725   -3.0734 C.3     1  UNL1        0.1760
     34 O          17.5451   73.5355   -3.5928 O.3     1  UNL1       -0.3801
     35 O          16.9276   70.9514   -2.4384 O.3     1  UNL1       -0.3794
     36 O          20.1896   70.3682   -4.0063 O.3     1  UNL1       -0.3263
     37 H          16.7808   73.4003   -3.0158 H       1  UNL1        0.2105
     38 H          16.6194   70.0447   -2.5776 H       1  UNL1        0.2105
     39 C          20.2422   74.6519   -2.6099 C.2     1  UNL1        0.2231
     40 C          20.8796   75.9916   -2.3431 C.3     1  UNL1        0.0946
     41 N          20.4056   74.0537   -3.8056 N.am    1  UNL1       -0.2994
     42 O          19.5814   74.1125   -1.7482 O.2     1  UNL1       -0.2751
     43 H          20.9342   74.4853   -4.4955 H       1  UNL1        0.1496
     44 C          18.5913   68.7458   -3.2074 C.3     1  UNL1        0.1693
     45 O          19.6404   67.8816   -3.6488 O.3     1  UNL1       -0.3794
     46 H          19.2612   66.9952   -3.7203 H       1  UNL1        0.2105
@<TRIPOS>BOND
     1    29    30    1
     2    29    28    1
     3    29    36    1
     4    30    31    1
     5    30    41    1
     6    31    32    1
     7    31    34    1
     8    32    33    1
     9    32    35    1
    10    33    44    1
    11    33    36    1
    12    44    45    1
    13    39    40    1
    14    39    41   am
    15    39    42    2
    16    41    43    1
    17    28    25    1
    18    34    37    1
    19    35    38    1
    20    45    46    1
    21    15    16   ar
    22    15    20   ar
    23    15     6    1
    24    16    17   ar
    25    16    21    2
    26    17    18   ar
    27    17    23    1
    28    18    19   ar
    29    18    22    2
    30    19    20   ar
    31     6     7    1
    32     6    11    1
    33     7     8    1
    34     7     9    1
    35     8    13    1
    36     9    10    1
    37     9    12    1
    38    10    11    1
    39    10     5    1
    40    12    14    1
    41     5     4    1
    42     4     1    1
    43     1     2    2
    44     1     3    1
    45     1    24    1
    46    24    25    1
    47    25    26    2
    48    25    27    1
@<TRIPOS>MOLECULE
UD1
 46 48 0 0 0
SMALL
GASTEIGER

@<TRIPOS>ATOM
      1 P          22.1508   71.2975   -0.5960 P.3     1  UNL1        0.2189
      2 O          23.0184   70.3116   -1.2773 O.2     1  UNL1       -0.5170
      3 O          21.2260   70.5424    0.4844 O.3     1  UNL1       -0.4371
      4 O          21.2154   72.0300   -1.6830 O.3     1  UNL1       -0.3112
      5 C          20.9023   71.0580   -2.6817 C.3     1  UNL1        0.1811
      6 C          18.3537   71.0594   -5.2178 C.3     1  UNL1        0.2383
      7 C          18.1779   69.7022   -4.4917 C.3     1  UNL1        0.1895
      8 O          16.8123   69.2850   -4.5114 O.3     1  UNL1       -0.3779
      9 C          18.6313   70.0440   -3.0485 C.3     1  UNL1        0.1713
     10 C          19.4919   71.3111   -3.2166 C.3     1  UNL1        0.1764
     11 O          19.5482   71.6088   -4.6221 O.3     1  UNL1       -0.3308
     12 O          17.4988   70.3072   -2.2173 O.3     1  UNL1       -0.3794
     13 H          16.7714   68.4381   -4.0461 H       1  UNL1        0.2106
     14 H          16.9707   69.4979   -2.2003 H       1  UNL1        0.2105
     15 N          18.5391   70.8591   -6.6555 N.ar    1  UNL1       -0.2551
     16 C          17.4653   70.7489   -7.4568 C.ar    1  UNL1        0.3323
     17 N          17.6060   70.5681   -8.7834 N.ar    1  UNL1       -0.2743
     18 C          18.8352   70.4849   -9.3312 C.ar    1  UNL1        0.2626
     19 C          19.9742   70.5933   -8.4984 C.ar    1  UNL1        0.0795
     20 C          19.8044   70.7797   -7.1718 C.ar    1  UNL1        0.0869
     21 O          16.3501   70.8219   -6.9776 O.2     1  UNL1       -0.2464
     22 O          18.9635   70.3167  -10.5298 O.2     1  UNL1       -0.2670
     23 H          16.8204   70.4954   -9.3471 H       1  UNL1        0.1734
     24 O          23.0647   72.3918    0.1497 O.3     1  UNL1       -0.2703
     25 P          22.0941   73.6095    0.5552 P.3     1  UNL1        0.2208
     26 O          22.2056   73.8663    2.0079 O.2     1  UNL1       -0.5170
     27 O          20.5724   73.2272    0.1938 O.3     1  UNL1       -0.4371
     28 O          22.5212   74.9314   -0.2577 O.3     1  UNL1       -0.2865
     29 C          23.9295   75.0914   -0.0783 C.3     1  UNL1        0.2611
     30 C          24.2261   76.5363    0.3268 C.3     1  UNL1        0.1582
     31 C          23.7093   77.4793   -0.7656 C.3     1  UNL1        0.1625
     32 C          24.3025   77.0440   -2.1098 C.3     1  UNL1        0.1686
     33 C          23.9974   75.5612   -2.3324 C.3     1  UNL1        0.1760
     34 O          24.1117   78.8184   -0.4720 O.3     1  UNL1       -0.3801
     35 O          23.7205   77.8163   -3.1616 O.3     1  UNL1       -0.3794
     36 O          24.6006   74.7843   -1.2984 O.3     1  UNL1       -0.3263
     37 H          23.7660   79.3761   -1.1825 H       1  UNL1        0.2105
     38 H          24.1205   77.5100   -3.9879 H       1  UNL1        0.2105
     39 C          24.1942   76.6329    2.7607 C.2     1  UNL1        0.2231
     40 C          23.5028   76.9430    4.0638 C.3     1  UNL1        0.0946
     41 N          23.5550   76.8379    1.5929 N.am    1  UNL1       -0.2994
     42 O          25.3261   76.1982    2.7634 O.2     1  UNL1       -0.2751
     43 H          22.6491   77.1855    1.5905 H       1  UNL1        0.1496
     44 C          24.5577   75.1244   -3.6875 C.3     1  UNL1        0.1693
     45 O          24.5027   73.7000   -3.7894 O.3     1  UNL1       -0.3794
     46 H          24.8643   73.4673   -4.6553 H       1  UNL1        0.2105
@<TRIPOS>BOND
     1    29    30    1
     2    29    28    1
     3    29    36    1
     4    30    31    1
     5    30    41    1
     6    31    32    1
     7    31    34    1
     8    32    33    1
     9    32    35    1
    10    33    44    1
    11    33    36    1
    12    44    45    1
    13    39    40    1
    14    39    41   am
    15    39    42    2
    16    41    43    1
    17    28    25    1
    18    34    37    1
    19    35    38    1
    20    45    46    1
    21    15    16   ar
    22    15    20   ar
    23    15     6    1
    24    16    17   ar
    25    16    21    2
    26    17    18   ar
    27    17    23    1
    28    18    19   ar
    29    18    22    2
    30    19    20   ar
    31     6     7    1
    32     6    11    1
    33     7     8    1
    34     7     9    1
    35     8    13    1
    36     9    10    1
    37     9    12    1
    38    10    11    1
    39    10     5    1
    40    12    14    1
    41     5     4    1
    42     4     1    1
    43     1     2    2
    44     1     3    1
    45     1    24    1
    46    24    25    1
    47    25    26    2
    48    25    27    1
@<TRIPOS>MOLECULE
UD1
 46 48 0 0 0
SMALL
GASTEIGER

@<TRIPOS>ATOM
      1 P          21.8822   70.9737   -0.4922 P.3     1  UNL1        0.2189
      2 O          22.9150   70.7074   -1.5175 O.2     1  UNL1       -0.5170
      3 O          21.3718   69.5793    0.1304 O.3     1  UNL1       -0.4371
      4 O          20.6410   71.7443   -1.1692 O.3     1  UNL1       -0.3112
      5 C          20.6681   71.4290   -2.5621 C.3     1  UNL1        0.1811
      6 C          18.2072   71.2133   -5.1746 C.3     1  UNL1        0.2383
      7 C          18.0628   69.8826   -4.3945 C.3     1  UNL1        0.1895
      8 O          16.7168   69.4078   -4.4385 O.3     1  UNL1       -0.3779
      9 C          18.4537   70.3053   -2.9545 C.3     1  UNL1        0.1713
     10 C          19.2671   71.5991   -3.1518 C.3     1  UNL1        0.1764
     11 O          19.3579   71.8378   -4.5668 O.3     1  UNL1       -0.3308
     12 O          17.2844   70.5563   -2.1719 O.3     1  UNL1       -0.3794
     13 H          16.6949   68.5808   -3.9374 H       1  UNL1        0.2106
     14 H          16.7894   69.7270   -2.1354 H       1  UNL1        0.2105
     15 N          18.4484   70.9589   -6.5954 N.ar    1  UNL1       -0.2551
     16 C          17.4066   70.8247   -7.4344 C.ar    1  UNL1        0.3323
     17 N          17.5987   70.5942   -8.7468 N.ar    1  UNL1       -0.2743
     18 C          18.8482   70.4844   -9.2416 C.ar    1  UNL1        0.2626
     19 C          19.9539   70.6176   -8.3683 C.ar    1  UNL1        0.0795
     20 C          19.7326   70.8538   -7.0574 C.ar    1  UNL1        0.0869
     21 O          16.2737   70.9213   -7.0033 O.2     1  UNL1       -0.2464
     22 O          19.0230   70.2712  -10.4270 O.2     1  UNL1       -0.2670
     23 H          16.8357   70.5049   -9.3384 H       1  UNL1        0.1734
     24 O          22.5081   71.8868    0.6755 O.3     1  UNL1       -0.2703
     25 P          22.6256   73.3794    0.0859 P.3     1  UNL1        0.2208
     26 O          23.2462   73.3321   -1.2563 O.2     1  UNL1       -0.5170
     27 O          23.5366   74.2743    1.0664 O.3     1  UNL1       -0.4371
     28 O          21.1581   74.0313   -0.0243 O.3     1  UNL1       -0.2865
     29 C          21.2150   75.2950    0.6397 C.3     1  UNL1        0.2611
     30 C          20.2467   75.2873    1.8239 C.3     1  UNL1        0.1582
     31 C          18.8294   75.0091    1.3107 C.3     1  UNL1        0.1625
     32 C          18.5009   76.0193    0.2064 C.3     1  UNL1        0.1686
     33 C          19.5995   75.9696   -0.8575 C.3     1  UNL1        0.1760
     34 O          17.8959   75.1470    2.3836 O.3     1  UNL1       -0.3801
     35 O          17.2440   75.6873   -0.3866 O.3     1  UNL1       -0.3794
     36 O          20.8519   76.3275   -0.2743 O.3     1  UNL1       -0.3263
     37 H          17.0200   74.9635    2.0171 H       1  UNL1        0.2105
     38 H          17.0768   76.3464   -1.0753 H       1  UNL1        0.2105
     39 C          21.2999   74.5671    3.8991 C.2     1  UNL1        0.2231
     40 C          21.7045   73.4906    4.8736 C.3     1  UNL1        0.0946
     41 N          20.6395   74.2419    2.7712 N.am    1  UNL1       -0.2994
     42 O          21.5696   75.7265    4.1301 O.2     1  UNL1       -0.2751
     43 H          20.4237   73.3142    2.5860 H       1  UNL1        0.1496
     44 C          19.2642   76.9521   -1.9815 C.3     1  UNL1        0.1693
     45 O          18.4910   76.2861   -2.9819 O.3     1  UNL1       -0.3794
     46 H          18.3019   76.9385   -3.6698 H       1  UNL1        0.2105
@<TRIPOS>BOND
     1    29    30    1
     2    29    28    1
     3    29    36    1
     4    30    31    1
     5    30    41    1
     6    31    32    1
     7    31    34    1
     8    32    33    1
     9    32    35    1
    10    33    44    1
    11    33    36    1
    12    44    45    1
    13    39    40    1
    14    39    41   am
    15    39    42    2
    16    41    43    1
    17    28    25    1
    18    34    37    1
    19    35    38    1
    20    45    46    1
    21    15    16   ar
    22    15    20   ar
    23    15     6    1
    24    16    17   ar
    25    16    21    2
    26    17    18   ar
    27    17    23    1
    28    18    19   ar
    29    18    22    2
    30    19    20   ar
    31     6     7    1
    32     6    11    1
    33     7     8    1
    34     7     9    1
    35     8    13    1
    36     9    10    1
    37     9    12    1
    38    10    11    1
    39    10     5    1
    40    12    14    1
    41     5     4    1
    42     4     1    1
    43     1     2    2
    44     1     3    1
    45     1    24    1
    46    24    25    1
    47    25    26    2
    48    25    27    1
@<TRIPOS>MOLECULE
UD1
 46 48 0 0 0
SMALL
GASTEIGER

@<TRIPOS>ATOM
      1 P          22.3190   71.4012   -2.5060 P.3     1  UNL1        0.2189
      2 O          22.1207   72.8046   -2.0819 O.2     1  UNL1       -0.5170
      3 O          23.2782   71.3615   -3.7986 O.3     1  UNL1       -0.4371
      4 O          20.8950   70.7465   -2.8755 O.3     1  UNL1       -0.3112
      5 C          20.4951   71.3050   -4.1279 C.3     1  UNL1        0.1811
      6 C          17.3524   71.8884   -5.7742 C.3     1  UNL1        0.2383
      7 C          17.6556   70.3917   -6.0355 C.3     1  UNL1        0.1895
      8 O          16.4482   69.6367   -6.1423 O.3     1  UNL1       -0.3779
      9 C          18.4470   69.9928   -4.7628 C.3     1  UNL1        0.1713
     10 C          18.9682   71.3335   -4.2104 C.3     1  UNL1        0.1764
     11 O          18.5468   72.3653   -5.1187 O.3     1  UNL1       -0.3308
     12 O          17.5855   69.3556   -3.8171 O.3     1  UNL1       -0.3794
     13 H          16.7054   68.7185   -6.3044 H       1  UNL1        0.2106
     14 H          17.2459   68.5569   -4.2425 H       1  UNL1        0.2105
     15 N          17.1347   72.6018   -7.0332 N.ar    1  UNL1       -0.2551
     16 C          18.0848   72.5804   -7.9841 C.ar    1  UNL1        0.3323
     17 N          17.9099   73.2243   -9.1533 N.ar    1  UNL1       -0.2743
     18 C          16.7745   73.9132   -9.3864 C.ar    1  UNL1        0.2626
     19 C          15.7686   73.9490   -8.3916 C.ar    1  UNL1        0.0795
     20 C          15.9678   73.2898   -7.2301 C.ar    1  UNL1        0.0869
     21 O          19.1142   71.9633   -7.7887 O.2     1  UNL1       -0.2464
     22 O          16.6173   74.4997  -10.4412 O.2     1  UNL1       -0.2670
     23 H          18.6038   73.1943   -9.8299 H       1  UNL1        0.1734
     24 O          22.9971   70.5691   -1.3075 O.3     1  UNL1       -0.2703
     25 P          21.9648   70.6058   -0.0737 P.3     1  UNL1        0.2208
     26 O          22.1941   69.4314    0.7964 O.2     1  UNL1       -0.5170
     27 O          20.4559   70.5710   -0.6344 O.3     1  UNL1       -0.4371
     28 O          22.1891   71.9546    0.7754 O.3     1  UNL1       -0.2865
     29 C          20.9453   72.2566    1.4100 C.3     1  UNL1        0.2611
     30 C          20.5953   73.7250    1.1622 C.3     1  UNL1        0.1582
     31 C          21.7163   74.6086    1.7207 C.3     1  UNL1        0.1625
     32 C          21.9516   74.2331    3.1876 C.3     1  UNL1        0.1686
     33 C          22.2024   72.7266    3.2822 C.3     1  UNL1        0.1760
     34 O          21.3334   75.9822    1.6302 O.3     1  UNL1       -0.3801
     35 O          23.0888   74.9405    3.6855 O.3     1  UNL1       -0.3794
     36 O          21.0575   72.0167    2.8112 O.3     1  UNL1       -0.3263
     37 H          22.0656   76.5007    1.9911 H       1  UNL1        0.2105
     38 H          23.2013   74.6747    4.6092 H       1  UNL1        0.2105
     39 C          19.2933   74.4195   -0.7761 C.2     1  UNL1        0.2231
     40 C          19.1509   74.6602   -2.2573 C.3     1  UNL1        0.0946
     41 N          20.4566   73.9594   -0.2766 N.am    1  UNL1       -0.2994
     42 O          18.3603   74.6394   -0.0337 O.2     1  UNL1       -0.2751
     43 H          21.2033   73.7831   -0.8706 H       1  UNL1        0.1496
     44 C          22.4709   72.3461    4.7397 C.3     1  UNL1        0.1693
     45 O          21.5308   73.0102    5.5867 O.3     1  UNL1       -0.3794
     46 H          21.7346   72.7442    6.4936 H       1  UNL1        0.2105
@<TRIPOS>BOND
     1    29    30    1
     2    29    28    1
     3    29    36    1
     4    30    31    1
     5    30    41    1
     6    31    32    1
     7    31    34    1
     8    32    33    1
     9    32    35    1
    10    33    44    1
    11    33    36    1
    12    44    45    1
    13    39    40    1
    14    39    41   am
    15    39    42    2
    16    41    43    1
    17    28    25    1
    18    34    37    1
    19    35    38    1
    20    45    46    1
    21    15    16   ar
    22    15    20   ar
    23    15     6    1
    24    16    17   ar
    25    16    21    2
    26    17    18   ar
    27    17    23    1
    28    18    19   ar
    29    18    22    2
    30    19    20   ar
    31     6     7    1
    32     6    11    1
    33     7     8    1
    34     7     9    1
    35     8    13    1
    36     9    10    1
    37     9    12    1
    38    10    11    1
    39    10     5    1
    40    12    14    1
    41     5     4    1
    42     4     1    1
    43     1     2    2
    44     1     3    1
    45     1    24    1
    46    24    25    1
    47    25    26    2
    48    25    27    1
@<TRIPOS>MOLECULE
UD1
 46 48 0 0 0
SMALL
GASTEIGER

@<TRIPOS>ATOM
      1 P          22.8039   72.0550   -3.2641 P.3     1  UNL1        0.2189
      2 O          23.3170   70.6676   -3.2428 O.2     1  UNL1       -0.5170
      3 O          23.8436   72.9998   -4.0506 O.3     1  UNL1       -0.4371
      4 O          22.6336   72.5869   -1.7538 O.3     1  UNL1       -0.3112
      5 C          21.4835   73.4338   -1.7404 C.3     1  UNL1        0.1811
      6 C          21.2109   73.6460    1.8385 C.3     1  UNL1        0.2383
      7 C          20.6595   75.0001    1.3262 C.3     1  UNL1        0.1895
      8 O          19.6564   75.5093    2.2059 O.3     1  UNL1       -0.3779
      9 C          20.0465   74.6053   -0.0426 C.3     1  UNL1        0.1713
     10 C          20.7553   73.2856   -0.4035 C.3     1  UNL1        0.1764
     11 O          21.7031   73.0073    0.6412 O.3     1  UNL1       -0.3308
     12 O          18.6364   74.4062    0.0795 O.3     1  UNL1       -0.3794
     13 H          19.3564   76.3495    1.8323 H       1  UNL1        0.2106
     14 H          18.2590   75.2491    0.3644 H       1  UNL1        0.2105
     15 N          22.2978   73.8563    2.7955 N.ar    1  UNL1       -0.2551
     16 C          23.4499   74.4132    2.3834 C.ar    1  UNL1        0.3323
     17 N          24.4650   74.6221    3.2425 N.ar    1  UNL1       -0.2743
     18 C          24.3440   74.2649    4.5370 C.ar    1  UNL1        0.2626
     19 C          23.1388   73.6721    4.9830 C.ar    1  UNL1        0.0795
     20 C          22.1346   73.4789    4.1011 C.ar    1  UNL1        0.0869
     21 O          23.5742   74.7408    1.2190 O.2     1  UNL1       -0.2464
     22 O          25.2629   74.4489    5.3136 O.2     1  UNL1       -0.2670
     23 H          25.2872   75.0294    2.9290 H       1  UNL1        0.1734
     24 O          21.3778   72.0884   -4.0085 O.3     1  UNL1       -0.2703
     25 P          21.5591   73.0039   -5.3193 P.3     1  UNL1        0.2208
     26 O          22.7887   72.6006   -6.0364 O.2     1  UNL1       -0.5170
     27 O          21.6754   74.5495   -4.8835 O.3     1  UNL1       -0.4371
     28 O          20.2871   72.8152   -6.2873 O.3     1  UNL1       -0.2865
     29 C          20.3463   71.4807   -6.7941 C.3     1  UNL1        0.2611
     30 C          20.3026   71.5186   -8.3227 C.3     1  UNL1        0.1582
     31 C          19.0101   72.2105   -8.7702 C.3     1  UNL1        0.1625
     32 C          17.8225   71.5105   -8.1011 C.3     1  UNL1        0.1686
     33 C          18.0519   71.4759   -6.5887 C.3     1  UNL1        0.1760
     34 O          18.8854   72.1198  -10.1906 O.3     1  UNL1       -0.3801
     35 O          16.6210   72.2290   -8.3873 O.3     1  UNL1       -0.3794
     36 O          19.2366   70.7355   -6.2975 O.3     1  UNL1       -0.3263
     37 H          18.0612   72.5668  -10.4279 H       1  UNL1        0.2105
     38 H          15.9005   71.7557   -7.9476 H       1  UNL1        0.2105
     39 C          21.3613   73.5883   -9.0507 C.2     1  UNL1        0.2231
     40 C          22.5506   74.3546   -9.5709 C.3     1  UNL1        0.0946
     41 N          21.4579   72.2635   -8.8276 N.am    1  UNL1       -0.2994
     42 O          20.3167   74.1644   -8.8335 O.2     1  UNL1       -0.2751
     43 H          22.2936   71.8022   -9.0015 H       1  UNL1        0.1496
     44 C          16.8558   70.8075   -5.9077 C.3     1  UNL1        0.1693
     45 O          16.2589   69.8696   -6.8056 O.3     1  UNL1       -0.3794
     46 H          15.5113   69.4723   -6.3390 H       1  UNL1        0.2105
@<TRIPOS>BOND
     1    29    30    1
     2    29    28    1
     3    29    36    1
     4    30    31    1
     5    30    41    1
     6    31    32    1
     7    31    34    1
     8    32    33    1
     9    32    35    1
    10    33    44    1
    11    33    36    1
    12    44    45    1
    13    39    40    1
    14    39    41   am
    15    39    42    2
    16    41    43    1
    17    28    25    1
    18    34    37    1
    19    35    38    1
    20    45    46    1
    21    15    16   ar
    22    15    20   ar
    23    15     6    1
    24    16    17   ar
    25    16    21    2
    26    17    18   ar
    27    17    23    1
    28    18    19   ar
    29    18    22    2
    30    19    20   ar
    31     6     7    1
    32     6    11    1
    33     7     8    1
    34     7     9    1
    35     8    13    1
    36     9    10    1
    37     9    12    1
    38    10    11    1
    39    10     5    1
    40    12    14    1
    41     5     4    1
    42     4     1    1
    43     1     2    2
    44     1     3    1
    45     1    24    1
    46    24    25    1
    47    25    26    2
    48    25    27    1
@<TRIPOS>MOLECULE
UD1
 46 48 0 0 0
SMALL
GASTEIGER

@<TRIPOS>ATOM
      1 P          22.7163   72.0809   -2.8342 P.3     1  UNL1        0.2189
      2 O          22.8257   70.6314   -2.5588 O.2     1  UNL1       -0.5170
      3 O          23.8036   72.4996   -3.9455 O.3     1  UNL1       -0.4371
      4 O          22.9904   72.9062   -1.4790 O.3     1  UNL1       -0.3112
      5 C          22.8527   71.9834   -0.3974 C.3     1  UNL1        0.1811
      6 C          20.6989   72.9931    2.2987 C.3     1  UNL1        0.2383
      7 C          20.7878   74.2409    1.3847 C.3     1  UNL1        0.1895
      8 O          19.5834   75.0058    1.4453 O.3     1  UNL1       -0.3779
      9 C          20.9694   73.6049   -0.0180 C.3     1  UNL1        0.1713
     10 C          21.4962   72.1876    0.2790 C.3     1  UNL1        0.1764
     11 O          21.6386   72.0722    1.7051 O.3     1  UNL1       -0.3308
     12 O          19.7183   73.5465   -0.7066 O.3     1  UNL1       -0.3794
     13 H          19.7035   75.7645    0.8577 H       1  UNL1        0.2106
     14 H          19.4131   74.4578   -0.8090 H       1  UNL1        0.2105
     15 N          21.0947   73.3232    3.6683 N.ar    1  UNL1       -0.2551
     16 C          20.1651   73.7272    4.5515 C.ar    1  UNL1        0.3323
     17 N          20.5000   74.0335    5.8189 N.ar    1  UNL1       -0.2743
     18 C          21.7837   73.9481    6.2221 C.ar    1  UNL1        0.2626
     19 C          22.7734   73.5299    5.3010 C.ar    1  UNL1        0.0795
     20 C          22.4091   73.2236    4.0373 C.ar    1  UNL1        0.0869
     21 O          19.0031   73.8092    4.2029 O.2     1  UNL1       -0.2464
     22 O          22.0883   74.2294    7.3664 O.2     1  UNL1       -0.2670
     23 H          19.8157   74.3186    6.4439 H       1  UNL1        0.1734
     24 O          21.2383   72.4142   -3.3757 O.3     1  UNL1       -0.2703
     25 P          20.4242   71.0263   -3.3895 P.3     1  UNL1        0.2208
     26 O          19.6376   70.9036   -2.1425 O.2     1  UNL1       -0.5170
     27 O          21.4591   69.7973   -3.4934 O.3     1  UNL1       -0.4371
     28 O          19.4308   70.9979   -4.6555 O.3     1  UNL1       -0.2865
     29 C          19.4735   72.2986   -5.2451 C.3     1  UNL1        0.2611
     30 C          18.0457   72.8128   -5.4379 C.3     1  UNL1        0.1582
     31 C          17.2784   71.8363   -6.3364 C.3     1  UNL1        0.1625
     32 C          18.0764   71.6281   -7.6278 C.3     1  UNL1        0.1686
     33 C          19.5012   71.2003   -7.2698 C.3     1  UNL1        0.1760
     34 O          15.9935   72.3791   -6.6458 O.3     1  UNL1       -0.3801
     35 O          17.4542   70.6112   -8.4154 O.3     1  UNL1       -0.3794
     36 O          20.1350   72.2258   -6.5062 O.3     1  UNL1       -0.3263
     37 H          15.5463   71.7340   -7.2107 H       1  UNL1        0.2105
     38 H          17.9880   70.5120   -9.2165 H       1  UNL1        0.2105
     39 C          16.6069   71.8973   -3.6984 C.2     1  UNL1        0.2231
     40 C          15.9213   71.9974   -2.3596 C.3     1  UNL1        0.0946
     41 N          17.3800   72.9093   -4.1372 N.am    1  UNL1       -0.2994
     42 O          16.4620   70.9058   -4.3811 O.2     1  UNL1       -0.2751
     43 H          17.4959   73.7029   -3.5911 H       1  UNL1        0.1496
     44 C          20.2976   70.9582   -8.5537 C.3     1  UNL1        0.1693
     45 O          20.2278   69.5746   -8.9042 O.3     1  UNL1       -0.3794
     46 H          20.7413   69.4654   -9.7160 H       1  UNL1        0.2105
@<TRIPOS>BOND
     1    29    30    1
     2    29    28    1
     3    29    36    1
     4    30    31    1
     5    30    41    1
     6    31    32    1
     7    31    34    1
     8    32    33    1
     9    32    35    1
    10    33    44    1
    11    33    36    1
    12    44    45    1
    13    39    40    1
    14    39    41   am
    15    39    42    2
    16    41    43    1
    17    28    25    1
    18    34    37    1
    19    35    38    1
    20    45    46    1
    21    15    16   ar
    22    15    20   ar
    23    15     6    1
    24    16    17   ar
    25    16    21    2
    26    17    18   ar
    27    17    23    1
    28    18    19   ar
    29    18    22    2
    30    19    20   ar
    31     6     7    1
    32     6    11    1
    33     7     8    1
    34     7     9    1
    35     8    13    1
    36     9    10    1
    37     9    12    1
    38    10    11    1
    39    10     5    1
    40    12    14    1
    41     5     4    1
    42     4     1    1
    43     1     2    2
    44     1     3    1
    45     1    24    1
    46    24    25    1
    47    25    26    2
    48    25    27    1
@<TRIPOS>MOLECULE
UD1
 46 48 0 0 0
SMALL
GASTEIGER

@<TRIPOS>ATOM
      1 P          18.0215   72.1655   -2.4225 P.3     1  UNL1        0.2189
      2 O          17.3960   72.9323   -1.3227 O.2     1  UNL1       -0.5170
      3 O          17.1954   70.8049   -2.6656 O.3     1  UNL1       -0.4371
      4 O          19.5411   71.8064   -2.0291 O.3     1  UNL1       -0.3112
      5 C          20.0154   72.8674   -1.1987 C.3     1  UNL1        0.1811
      6 C          22.5787   72.4242    1.2833 C.3     1  UNL1        0.2383
      7 C          21.9916   71.0058    1.0740 C.3     1  UNL1        0.1895
      8 O          22.9859   70.0040    1.2903 O.3     1  UNL1       -0.3779
      9 C          21.5628   71.0474   -0.4158 C.3     1  UNL1        0.1713
     10 C          21.4355   72.5512   -0.7269 C.3     1  UNL1        0.1764
     11 O          21.7177   73.2666    0.4879 O.3     1  UNL1       -0.3308
     12 O          22.5607   70.4420   -1.2407 O.3     1  UNL1       -0.3794
     13 H          22.5580   69.1487    1.1456 H       1  UNL1        0.2106
     14 H          22.6355   69.5208   -0.9581 H       1  UNL1        0.2105
     15 N          22.5174   72.8088    2.6938 N.ar    1  UNL1       -0.2551
     16 C          21.3980   72.5741    3.4004 C.ar    1  UNL1        0.3323
     17 N          21.3148   72.9138    4.7004 N.ar    1  UNL1       -0.2743
     18 C          22.3575   73.5073    5.3156 C.ar    1  UNL1        0.2626
     19 C          23.5399   73.7656    4.5821 C.ar    1  UNL1        0.0795
     20 C          23.5982   73.4097    3.2808 C.ar    1  UNL1        0.0869
     21 O          20.4491   72.0395    2.8595 O.2     1  UNL1       -0.2464
     22 O          22.2817   73.8191    6.4897 O.2     1  UNL1       -0.2670
     23 H          20.5013   72.7327    5.1960 H       1  UNL1        0.1734
     24 O          18.0099   73.0490   -3.7671 O.3     1  UNL1       -0.2703
     25 P          17.8275   72.0249   -4.9948 P.3     1  UNL1        0.2208
     26 O          16.5221   71.3391   -4.8752 O.2     1  UNL1       -0.5170
     27 O          19.0109   70.9336   -4.9645 O.3     1  UNL1       -0.4371
     28 O          17.8825   72.8355   -6.3842 O.3     1  UNL1       -0.2865
     29 C          16.5917   72.7163   -6.9849 C.3     1  UNL1        0.2611
     30 C          16.7531   72.5137   -8.4925 C.3     1  UNL1        0.1582
     31 C          17.5152   73.7069   -9.0799 C.3     1  UNL1        0.1625
     32 C          16.7982   74.9971   -8.6685 C.3     1  UNL1        0.1686
     33 C          16.6362   75.0138   -7.1470 C.3     1  UNL1        0.1760
     34 O          17.5420   73.6036  -10.5047 O.3     1  UNL1       -0.3801
     35 O          17.5713   76.1259   -9.0806 O.3     1  UNL1       -0.3794
     36 O          15.8412   73.9027   -6.7346 O.3     1  UNL1       -0.3263
     37 H          18.0300   74.3720  -10.8314 H       1  UNL1        0.2105
     38 H          17.0852   76.9148   -8.8017 H       1  UNL1        0.2105
     39 C          18.8323   71.3308   -8.9528 C.2     1  UNL1        0.2231
     40 C          19.6033   70.0617   -9.2119 C.3     1  UNL1        0.0946
     41 N          17.5026   71.2811   -8.7438 N.am    1  UNL1       -0.2994
     42 O          19.4089   72.3973   -8.9332 O.2     1  UNL1       -0.2751
     43 H          17.0409   70.4278   -8.7596 H       1  UNL1        0.1496
     44 C          15.9499   76.3138   -6.7227 C.3     1  UNL1        0.1693
     45 O          14.6392   76.3680   -7.2896 O.3     1  UNL1       -0.3794
     46 H          14.2428   77.2004   -6.9986 H       1  UNL1        0.2105
@<TRIPOS>BOND
     1    29    30    1
     2    29    28    1
     3    29    36    1
     4    30    31    1
     5    30    41    1
     6    31    32    1
     7    31    34    1
     8    32    33    1
     9    32    35    1
    10    33    44    1
    11    33    36    1
    12    44    45    1
    13    39    40    1
    14    39    41   am
    15    39    42    2
    16    41    43    1
    17    28    25    1
    18    34    37    1
    19    35    38    1
    20    45    46    1
    21    15    16   ar
    22    15    20   ar
    23    15     6    1
    24    16    17   ar
    25    16    21    2
    26    17    18   ar
    27    17    23    1
    28    18    19   ar
    29    18    22    2
    30    19    20   ar
    31     6     7    1
    32     6    11    1
    33     7     8    1
    34     7     9    1
    35     8    13    1
    36     9    10    1
    37     9    12    1
    38    10    11    1
    39    10     5    1
    40    12    14    1
    41     5     4    1
    42     4     1    1
    43     1     2    2
    44     1     3    1
    45     1    24    1
    46    24    25    1
    47    25    26    2
    48    25    27    1
@<TRIPOS>MOLECULE
UD1
 46 48 0 0 0
SMALL
GASTEIGER

@<TRIPOS>ATOM
      1 P          22.1791   70.8865   -0.1897 P.3     1  UNL1        0.2189
      2 O          21.0878   69.8931   -0.0846 O.2     1  UNL1       -0.5170
      3 O          23.5407   70.1442   -0.6229 O.3     1  UNL1       -0.4371
      4 O          22.3904   71.6036    1.2365 O.3     1  UNL1       -0.3112
      5 C          21.3878   72.6154    1.3436 C.3     1  UNL1        0.1811
      6 C          20.9254   74.2614    4.5065 C.3     1  UNL1        0.2383
      7 C          21.8353   73.0497    4.8289 C.3     1  UNL1        0.1895
      8 O          22.7085   73.3422    5.9203 O.3     1  UNL1       -0.3779
      9 C          22.6344   72.8826    3.5103 C.3     1  UNL1        0.1713
     10 C          21.7678   73.5957    2.4544 C.3     1  UNL1        0.1764
     11 O          20.5822   74.0659    3.1181 O.3     1  UNL1       -0.3308
     12 O          23.9158   73.5062    3.6193 O.3     1  UNL1       -0.3794
     13 H          23.2448   72.5513    6.0698 H       1  UNL1        0.2106
     14 H          24.3856   73.0559    4.3338 H       1  UNL1        0.2105
     15 N          19.7243   74.2459    5.3423 N.ar    1  UNL1       -0.2551
     16 C          19.7486   74.8264    6.5546 C.ar    1  UNL1        0.3323
     17 N          18.6574   74.8307    7.3430 N.ar    1  UNL1       -0.2743
     18 C          17.5179   74.2404    6.9295 C.ar    1  UNL1        0.2626
     19 C          17.4803   73.6203    5.6579 C.ar    1  UNL1        0.0795
     20 C          18.5876   73.6353    4.8852 C.ar    1  UNL1        0.0869
     21 O          20.7688   75.3630    6.9416 O.2     1  UNL1       -0.2464
     22 O          16.5322   74.2395    7.6435 O.2     1  UNL1       -0.2670
     23 H          18.6914   75.2583    8.2126 H       1  UNL1        0.1734
     24 O          21.7943   71.9916   -1.2940 O.3     1  UNL1       -0.2703
     25 P          21.6621   71.2184   -2.6990 P.3     1  UNL1        0.2208
     26 O          21.5105   69.7677   -2.4512 O.2     1  UNL1       -0.5170
     27 O          22.9843   71.4761   -3.5807 O.3     1  UNL1       -0.4371
     28 O          20.3737   71.7643   -3.4942 O.3     1  UNL1       -0.2865
     29 C          20.4713   71.2695   -4.8310 C.3     1  UNL1        0.2611
     30 C          20.0544   72.3698   -5.8085 C.3     1  UNL1        0.1582
     31 C          18.6173   72.8009   -5.4947 C.3     1  UNL1        0.1625
     32 C          17.7220   71.5573   -5.4923 C.3     1  UNL1        0.1686
     33 C          18.3133   70.5194   -4.5361 C.3     1  UNL1        0.1760
     34 O          18.1644   73.7192   -6.4912 O.3     1  UNL1       -0.3801
     35 O          16.4084   71.9150   -5.0586 O.3     1  UNL1       -0.3794
     36 O          19.6147   70.1395   -4.9818 O.3     1  UNL1       -0.3263
     37 H          17.2590   73.9637   -6.2550 H       1  UNL1        0.2105
     38 H          15.8793   71.1048   -5.0712 H       1  UNL1        0.2105
     39 C          21.6310   73.9793   -6.7347 C.2     1  UNL1        0.2231
     40 C          22.5562   75.1604   -6.5881 C.3     1  UNL1        0.0946
     41 N          20.9529   73.5174   -5.6666 N.am    1  UNL1       -0.2994
     42 O          21.4975   73.4442   -7.8146 O.2     1  UNL1       -0.2751
     43 H          21.0597   73.9453   -4.8023 H       1  UNL1        0.1496
     44 C          17.4088   69.2857   -4.5017 C.3     1  UNL1        0.1693
     45 O          16.5686   69.2783   -5.6575 O.3     1  UNL1       -0.3794
     46 H          16.0161   68.4873   -5.5968 H       1  UNL1        0.2105
@<TRIPOS>BOND
     1    29    30    1
     2    29    28    1
     3    29    36    1
     4    30    31    1
     5    30    41    1
     6    31    32    1
     7    31    34    1
     8    32    33    1
     9    32    35    1
    10    33    44    1
    11    33    36    1
    12    44    45    1
    13    39    40    1
    14    39    41   am
    15    39    42    2
    16    41    43    1
    17    28    25    1
    18    34    37    1
    19    35    38    1
    20    45    46    1
    21    15    16   ar
    22    15    20   ar
    23    15     6    1
    24    16    17   ar
    25    16    21    2
    26    17    18   ar
    27    17    23    1
    28    18    19   ar
    29    18    22    2
    30    19    20   ar
    31     6     7    1
    32     6    11    1
    33     7     8    1
    34     7     9    1
    35     8    13    1
    36     9    10    1
    37     9    12    1
    38    10    11    1
    39    10     5    1
    40    12    14    1
    41     5     4    1
    42     4     1    1
    43     1     2    2
    44     1     3    1
    45     1    24    1
    46    24    25    1
    47    25    26    2
    48    25    27    1
@<TRIPOS>MOLECULE
UD1
 46 48 0 0 0
SMALL
GASTEIGER

@<TRIPOS>ATOM
      1 P          22.1702   70.5248   -0.2904 P.3     1  UNL1        0.2189
      2 O          20.8084   70.0961   -0.6781 O.2     1  UNL1       -0.5170
      3 O          22.7829   69.4756    0.7662 O.3     1  UNL1       -0.4371
      4 O          22.1008   71.9854    0.3840 O.3     1  UNL1       -0.3112
      5 C          22.0324   71.7861    1.7968 C.3     1  UNL1        0.1811
      6 C          21.1833   74.5472    3.9374 C.3     1  UNL1        0.2383
      7 C          21.5109   75.2013    2.5717 C.3     1  UNL1        0.1895
      8 O          20.7491   76.3938    2.3802 O.3     1  UNL1       -0.3779
      9 C          21.0757   74.0998    1.5704 C.3     1  UNL1        0.1713
     10 C          21.0752   72.8085    2.4112 C.3     1  UNL1        0.1764
     11 O          21.5161   73.1574    3.7345 O.3     1  UNL1       -0.3308
     12 O          19.7684   74.3741    1.0620 O.3     1  UNL1       -0.3794
     13 H          20.9990   76.7503    1.5165 H       1  UNL1        0.2106
     14 H          19.8208   75.2207    0.5987 H       1  UNL1        0.2105
     15 N          22.0060   75.1251    5.0007 N.ar    1  UNL1       -0.2551
     16 C          23.3351   74.9233    4.9990 C.ar    1  UNL1        0.3323
     17 N          24.1168   75.4461    5.9622 N.ar    1  UNL1       -0.2743
     18 C          23.5733   76.1777    6.9559 C.ar    1  UNL1        0.2626
     19 C          22.1746   76.3929    6.9732 C.ar    1  UNL1        0.0795
     20 C          21.4147   75.8614    5.9917 C.ar    1  UNL1        0.0869
     21 O          23.8401   74.2657    4.1095 O.2     1  UNL1       -0.2464
     22 O          24.2785   76.6468    7.8299 O.2     1  UNL1       -0.2670
     23 H          25.0743   75.2945    5.9427 H       1  UNL1        0.1734
     24 O          23.1075   70.5813   -1.5970 O.3     1  UNL1       -0.2703
     25 P          22.7425   71.9432   -2.3724 P.3     1  UNL1        0.2208
     26 O          23.6440   72.1060   -3.5342 O.2     1  UNL1       -0.5170
     27 O          22.9226   73.1942   -1.3750 O.3     1  UNL1       -0.4371
     28 O          21.2170   71.8801   -2.8816 O.3     1  UNL1       -0.2865
     29 C          21.2482   71.3946   -4.2249 C.3     1  UNL1        0.2611
     30 C          20.4893   72.3660   -5.1308 C.3     1  UNL1        0.1582
     31 C          19.0447   72.4902   -4.6337 C.3     1  UNL1        0.1625
     32 C          18.4393   71.0863   -4.5310 C.3     1  UNL1        0.1686
     33 C          19.3514   70.2122   -3.6677 C.3     1  UNL1        0.1760
     34 O          18.2869   73.2757   -5.5557 O.3     1  UNL1       -0.3801
     35 O          17.1448   71.1667   -3.9313 O.3     1  UNL1       -0.3794
     36 O          20.6372   70.1073   -4.2779 O.3     1  UNL1       -0.3263
     37 H          17.3873   73.3281   -5.2047 H       1  UNL1        0.2105
     38 H          16.8013   70.2632   -3.8853 H       1  UNL1        0.2105
     39 C          22.1773   73.9427   -5.9047 C.2     1  UNL1        0.2231
     40 C          22.8431   75.2945   -5.8638 C.3     1  UNL1        0.0946
     41 N          21.1362   73.6792   -5.0918 N.am    1  UNL1       -0.2994
     42 O          22.5793   73.0918   -6.6691 O.2     1  UNL1       -0.2751
     43 H          20.8144   74.3600   -4.4797 H       1  UNL1        0.1496
     44 C          18.7391   68.8166   -3.5319 C.3     1  UNL1        0.1693
     45 O          18.0914   68.7015   -2.2633 O.3     1  UNL1       -0.3794
     46 H          17.7204   67.8099   -2.2184 H       1  UNL1        0.2105
@<TRIPOS>BOND
     1    29    30    1
     2    29    28    1
     3    29    36    1
     4    30    31    1
     5    30    41    1
     6    31    32    1
     7    31    34    1
     8    32    33    1
     9    32    35    1
    10    33    44    1
    11    33    36    1
    12    44    45    1
    13    39    40    1
    14    39    41   am
    15    39    42    2
    16    41    43    1
    17    28    25    1
    18    34    37    1
    19    35    38    1
    20    45    46    1
    21    15    16   ar
    22    15    20   ar
    23    15     6    1
    24    16    17   ar
    25    16    21    2
    26    17    18   ar
    27    17    23    1
    28    18    19   ar
    29    18    22    2
    30    19    20   ar
    31     6     7    1
    32     6    11    1
    33     7     8    1
    34     7     9    1
    35     8    13    1
    36     9    10    1
    37     9    12    1
    38    10    11    1
    39    10     5    1
    40    12    14    1
    41     5     4    1
    42     4     1    1
    43     1     2    2
    44     1     3    1
    45     1    24    1
    46    24    25    1
    47    25    26    2
    48    25    27    1
@<TRIPOS>MOLECULE
UD1
 46 48 0 0 0
SMALL
GASTEIGER

@<TRIPOS>ATOM
      1 P          22.2202   71.1106   -0.0007 P.3     1  UNL1        0.2189
      2 O          23.2878   70.6043   -0.8909 O.2     1  UNL1       -0.5170
      3 O          21.7059   69.9189    0.9523 O.3     1  UNL1       -0.4371
      4 O          20.9924   71.6526   -0.8905 O.3     1  UNL1       -0.3112
      5 C          21.3792   71.5128   -2.2584 C.3     1  UNL1        0.1811
      6 C          20.0114   72.6883   -5.3687 C.3     1  UNL1        0.2383
      7 C          19.7450   71.1622   -5.3797 C.3     1  UNL1        0.1895
      8 O          18.5545   70.8563   -6.1066 O.3     1  UNL1       -0.3779
      9 C          19.5671   70.8519   -3.8706 C.3     1  UNL1        0.1713
     10 C          20.2594   72.0319   -3.1616 C.3     1  UNL1        0.1764
     11 O          20.8090   72.8833   -4.1816 O.3     1  UNL1       -0.3308
     12 O          18.1798   70.7998   -3.5307 O.3     1  UNL1       -0.3794
     13 H          18.4466   69.8957   -6.0760 H       1  UNL1        0.2106
     14 H          17.7919   70.0826   -4.0496 H       1  UNL1        0.2105
     15 N          20.7545   73.0944   -6.5622 N.ar    1  UNL1       -0.2551
     16 C          22.0961   73.0093   -6.5729 C.ar    1  UNL1        0.3323
     17 N          22.8051   73.3722   -7.6582 N.ar    1  UNL1       -0.2743
     18 C          22.1762   73.8386   -8.7559 C.ar    1  UNL1        0.2626
     19 C          20.7645   73.9390   -8.7561 C.ar    1  UNL1        0.0795
     20 C          20.0777   73.5631   -7.6559 C.ar    1  UNL1        0.0869
     21 O          22.6777   72.5906   -5.5905 O.2     1  UNL1       -0.2464
     22 O          22.8165   74.1714   -9.7360 O.2     1  UNL1       -0.2670
     23 H          23.7720   73.2997   -7.6501 H       1  UNL1        0.1734
     24 O          22.7984   72.3099    0.9027 O.3     1  UNL1       -0.2703
     25 P          21.5688   72.8668    1.7785 P.3     1  UNL1        0.2208
     26 O          20.9321   71.7454    2.5037 O.2     1  UNL1       -0.5170
     27 O          20.4875   73.5595    0.8073 O.3     1  UNL1       -0.4371
     28 O          22.1101   73.9518    2.8369 O.3     1  UNL1       -0.2865
     29 C          22.8179   73.2292    3.8459 C.3     1  UNL1        0.2611
     30 C          22.2470   73.5887    5.2189 C.3     1  UNL1        0.1582
     31 C          22.3838   75.0995    5.4387 C.3     1  UNL1        0.1625
     32 C          23.8470   75.4966    5.2166 C.3     1  UNL1        0.1686
     33 C          24.2963   74.9958    3.8423 C.3     1  UNL1        0.1760
     34 O          21.9926   75.4265    6.7734 O.3     1  UNL1       -0.3801
     35 O          23.9699   76.9191    5.2721 O.3     1  UNL1       -0.3794
     36 O          24.2008   73.5728    3.7929 O.3     1  UNL1       -0.3263
     37 H          22.0937   76.3837    6.8675 H       1  UNL1        0.2105
     38 H          24.9042   77.1250    5.1269 H       1  UNL1        0.2105
     39 C          19.8799   74.1214    5.0012 C.2     1  UNL1        0.2231
     40 C          18.4249   73.7318    5.0606 C.3     1  UNL1        0.0946
     41 N          20.8334   73.2106    5.2759 N.am    1  UNL1       -0.2994
     42 O          20.1924   75.2553    4.7067 O.2     1  UNL1       -0.2751
     43 H          20.5836   72.3031    5.5119 H       1  UNL1        0.1496
     44 C          25.7471   75.4156    3.5971 C.3     1  UNL1        0.1693
     45 O          26.4729   75.3633    4.8270 O.3     1  UNL1       -0.3794
     46 H          27.3793   75.6347    4.6287 H       1  UNL1        0.2105
@<TRIPOS>BOND
     1    29    30    1
     2    29    28    1
     3    29    36    1
     4    30    31    1
     5    30    41    1
     6    31    32    1
     7    31    34    1
     8    32    33    1
     9    32    35    1
    10    33    44    1
    11    33    36    1
    12    44    45    1
    13    39    40    1
    14    39    41   am
    15    39    42    2
    16    41    43    1
    17    28    25    1
    18    34    37    1
    19    35    38    1
    20    45    46    1
    21    15    16   ar
    22    15    20   ar
    23    15     6    1
    24    16    17   ar
    25    16    21    2
    26    17    18   ar
    27    17    23    1
    28    18    19   ar
    29    18    22    2
    30    19    20   ar
    31     6     7    1
    32     6    11    1
    33     7     8    1
    34     7     9    1
    35     8    13    1
    36     9    10    1
    37     9    12    1
    38    10    11    1
    39    10     5    1
    40    12    14    1
    41     5     4    1
    42     4     1    1
    43     1     2    2
    44     1     3    1
    45     1    24    1
    46    24    25    1
    47    25    26    2
    48    25    27    1
@<TRIPOS>MOLECULE
UD1
 46 48 0 0 0
SMALL
GASTEIGER

@<TRIPOS>ATOM
      1 P          22.0902   70.9298   -2.8650 P.3     1  UNL1        0.2189
      2 O          23.4343   70.6946   -3.4367 O.2     1  UNL1       -0.5170
      3 O          21.5161   69.5528   -2.2593 O.3     1  UNL1       -0.4371
      4 O          21.1017   71.4603   -4.0200 O.3     1  UNL1       -0.3112
      5 C          21.7844   72.5175   -4.6958 C.3     1  UNL1        0.1811
      6 C          19.8571   72.8486   -7.7129 C.3     1  UNL1        0.2383
      7 C          20.6683   74.1655   -7.6240 C.3     1  UNL1        0.1895
      8 O          20.9621   74.6738   -8.9258 O.3     1  UNL1       -0.3779
      9 C          21.9625   73.7029   -6.9056 C.3     1  UNL1        0.1713
     10 C          21.5531   72.3942   -6.2026 C.3     1  UNL1        0.1764
     11 O          20.1556   72.1835   -6.4670 O.3     1  UNL1       -0.3308
     12 O          23.0037   73.4637   -7.8551 O.3     1  UNL1       -0.3794
     13 H          21.4654   75.4902   -8.8008 H       1  UNL1        0.2106
     14 H          23.1724   74.3039   -8.3020 H       1  UNL1        0.2105
     15 N          18.4244   73.1273   -7.8188 N.ar    1  UNL1       -0.2551
     16 C          17.8593   73.2596   -9.0315 C.ar    1  UNL1        0.3323
     17 N          16.5431   73.5121   -9.1590 N.ar    1  UNL1       -0.2743
     18 C          15.7678   73.6463   -8.0641 C.ar    1  UNL1        0.2626
     19 C          16.3509   73.5154   -6.7813 C.ar    1  UNL1        0.0795
     20 C          17.6725   73.2568   -6.6823 C.ar    1  UNL1        0.0869
     21 O          18.5454   73.1412  -10.0284 O.2     1  UNL1       -0.2464
     22 O          14.5787   73.8794   -8.1782 O.2     1  UNL1       -0.2670
     23 H          16.1513   73.5998  -10.0416 H       1  UNL1        0.1734
     24 O          22.1894   72.0312   -1.6962 O.3     1  UNL1       -0.2703
     25 P          22.2904   71.2264   -0.3064 P.3     1  UNL1        0.2208
     26 O          23.4238   70.2774   -0.3674 O.2     1  UNL1       -0.5170
     27 O          20.9236   70.4134   -0.0557 O.3     1  UNL1       -0.4371
     28 O          22.5245   72.2649    0.9007 O.3     1  UNL1       -0.2865
     29 C          21.2733   72.4041    1.5762 C.3     1  UNL1        0.2611
     30 C          20.5909   73.6930    1.1147 C.3     1  UNL1        0.1582
     31 C          21.5070   74.8829    1.4219 C.3     1  UNL1        0.1625
     32 C          21.8844   74.8405    2.9065 C.3     1  UNL1        0.1686
     33 C          22.4722   73.4658    3.2321 C.3     1  UNL1        0.1760
     34 O          20.8208   76.1025    1.1336 O.3     1  UNL1       -0.3801
     35 O          22.8533   75.8537    3.1824 O.3     1  UNL1       -0.3794
     36 O          21.4975   72.4535    2.9836 O.3     1  UNL1       -0.3263
     37 H          21.4322   76.8228    1.3403 H       1  UNL1        0.2105
     38 H          23.0628   75.7911    4.1252 H       1  UNL1        0.2105
     39 C          19.1883   74.1042   -0.8341 C.2     1  UNL1        0.2231
     40 C          18.9309   74.0344   -2.3177 C.3     1  UNL1        0.0946
     41 N          20.3406   73.6259   -0.3265 N.am    1  UNL1       -0.2994
     42 O          18.3575   74.5905   -0.0969 O.2     1  UNL1       -0.2751
     43 H          21.0055   73.2364   -0.9163 H       1  UNL1        0.1496
     44 C          22.8825   73.4240    4.7056 C.3     1  UNL1        0.1693
     45 O          22.0071   72.5489    5.4196 O.3     1  UNL1       -0.3794
     46 H          22.2994   72.5515    6.3411 H       1  UNL1        0.2105
@<TRIPOS>BOND
     1    29    30    1
     2    29    28    1
     3    29    36    1
     4    30    31    1
     5    30    41    1
     6    31    32    1
     7    31    34    1
     8    32    33    1
     9    32    35    1
    10    33    44    1
    11    33    36    1
    12    44    45    1
    13    39    40    1
    14    39    41   am
    15    39    42    2
    16    41    43    1
    17    28    25    1
    18    34    37    1
    19    35    38    1
    20    45    46    1
    21    15    16   ar
    22    15    20   ar
    23    15     6    1
    24    16    17   ar
    25    16    21    2
    26    17    18   ar
    27    17    23    1
    28    18    19   ar
    29    18    22    2
    30    19    20   ar
    31     6     7    1
    32     6    11    1
    33     7     8    1
    34     7     9    1
    35     8    13    1
    36     9    10    1
    37     9    12    1
    38    10    11    1
    39    10     5    1
    40    12    14    1
    41     5     4    1
    42     4     1    1
    43     1     2    2
    44     1     3    1
    45     1    24    1
    46    24    25    1
    47    25    26    2
    48    25    27    1
@<TRIPOS>MOLECULE
UD1
 46 48 0 0 0
SMALL
GASTEIGER

@<TRIPOS>ATOM
      1 P          19.4039   72.4608   -2.1744 P.3     1  UNL1        0.2189
      2 O          19.7368   73.3962   -3.2712 O.2     1  UNL1       -0.5170
      3 O          17.8275   72.5446   -1.8573 O.3     1  UNL1       -0.4371
      4 O          20.2375   72.8617   -0.8563 O.3     1  UNL1       -0.3112
      5 C          21.4699   73.4295   -1.3028 C.3     1  UNL1        0.1811
      6 C          23.1785   72.4840    1.7161 C.3     1  UNL1        0.2383
      7 C          22.3811   71.2196    1.3091 C.3     1  UNL1        0.1895
      8 O          23.0587   70.0327    1.7231 O.3     1  UNL1       -0.3779
      9 C          22.3582   71.3328   -0.2374 C.3     1  UNL1        0.1713
     10 C          22.6284   72.8257   -0.5075 C.3     1  UNL1        0.1764
     11 O          22.7392   73.4798    0.7680 O.3     1  UNL1       -0.3308
     12 O          23.3827   70.5200   -0.8139 O.3     1  UNL1       -0.3794
     13 H          22.5127   69.2857    1.4414 H       1  UNL1        0.2106
     14 H          23.1910   69.6074   -0.5601 H       1  UNL1        0.2105
     15 N          22.8466   72.8900    3.0823 N.ar    1  UNL1       -0.2551
     16 C          21.6308   72.6108    3.5836 C.ar    1  UNL1        0.3323
     17 N          21.2995   72.9688    4.8383 N.ar    1  UNL1       -0.2743
     18 C          22.1854   73.6258    5.6138 C.ar    1  UNL1        0.2626
     19 C          23.4668   73.9314    5.0965 C.ar    1  UNL1        0.0795
     20 C          23.7747   73.5559    3.8366 C.ar    1  UNL1        0.0869
     21 O          20.8210   72.0187    2.8964 O.2     1  UNL1       -0.2464
     22 O          21.8852   73.9542    6.7467 O.2     1  UNL1       -0.2670
     23 H          20.4197   72.7551    5.1853 H       1  UNL1        0.1734
     24 O          19.7848   70.9607   -2.6143 O.3     1  UNL1       -0.2703
     25 P          18.7294   70.5267   -3.7488 P.3     1  UNL1        0.2208
     26 O          17.6748   69.6833   -3.1445 O.2     1  UNL1       -0.5170
     27 O          19.4886   69.6937   -4.8986 O.3     1  UNL1       -0.4371
     28 O          18.0613   71.8416   -4.3931 O.3     1  UNL1       -0.2865
     29 C          17.0971   71.3918   -5.3466 C.3     1  UNL1        0.2611
     30 C          17.3764   72.0527   -6.6976 C.3     1  UNL1        0.1582
     31 C          17.3068   73.5752   -6.5348 C.3     1  UNL1        0.1625
     32 C          15.9620   73.9390   -5.8966 C.3     1  UNL1        0.1686
     33 C          15.7908   73.1379   -4.6042 C.3     1  UNL1        0.1760
     34 O          17.4174   74.1993   -7.8153 O.3     1  UNL1       -0.3801
     35 O          15.9356   75.3367   -5.6013 O.3     1  UNL1       -0.3794
     36 O          15.7892   71.7417   -4.8990 O.3     1  UNL1       -0.3263
     37 H          17.3692   75.1536   -7.6661 H       1  UNL1        0.2105
     38 H          15.0741   75.5219   -5.2013 H       1  UNL1        0.2105
     39 C          18.8450   70.8358   -8.2131 C.2     1  UNL1        0.2231
     40 C          20.2187   70.4414   -8.6924 C.3     1  UNL1        0.0946
     41 N          18.7107   71.6696   -7.1638 N.am    1  UNL1       -0.2994
     42 O          17.8602   70.4020   -8.7719 O.2     1  UNL1       -0.2751
     43 H          19.4986   72.0167   -6.7164 H       1  UNL1        0.1496
     44 C          14.4649   73.5180   -3.9419 C.3     1  UNL1        0.1693
     45 O          13.9788   72.4120   -3.1788 O.3     1  UNL1       -0.3794
     46 H          13.1442   72.6926   -2.7796 H       1  UNL1        0.2105
@<TRIPOS>BOND
     1    29    30    1
     2    29    28    1
     3    29    36    1
     4    30    31    1
     5    30    41    1
     6    31    32    1
     7    31    34    1
     8    32    33    1
     9    32    35    1
    10    33    44    1
    11    33    36    1
    12    44    45    1
    13    39    40    1
    14    39    41   am
    15    39    42    2
    16    41    43    1
    17    28    25    1
    18    34    37    1
    19    35    38    1
    20    45    46    1
    21    15    16   ar
    22    15    20   ar
    23    15     6    1
    24    16    17   ar
    25    16    21    2
    26    17    18   ar
    27    17    23    1
    28    18    19   ar
    29    18    22    2
    30    19    20   ar
    31     6     7    1
    32     6    11    1
    33     7     8    1
    34     7     9    1
    35     8    13    1
    36     9    10    1
    37     9    12    1
    38    10    11    1
    39    10     5    1
    40    12    14    1
    41     5     4    1
    42     4     1    1
    43     1     2    2
    44     1     3    1
    45     1    24    1
    46    24    25    1
    47    25    26    2
    48    25    27    1
@<TRIPOS>MOLECULE
UD1
 46 48 0 0 0
SMALL
GASTEIGER

@<TRIPOS>ATOM
      1 P          21.6061   71.1502    0.2206 P.3     1  UNL1        0.2189
      2 O          22.9695   71.6740   -0.0148 O.2     1  UNL1       -0.5170
      3 O          21.6843   69.5739    0.5394 O.3     1  UNL1       -0.4371
      4 O          20.7066   71.3868   -1.0938 O.3     1  UNL1       -0.3112
      5 C          20.5436   70.1127   -1.7187 C.3     1  UNL1        0.1811
      6 C          20.3146   70.8767   -5.2246 C.3     1  UNL1        0.2383
      7 C          20.9585   72.1368   -4.5940 C.3     1  UNL1        0.1895
      8 O          21.8376   72.7786   -5.5184 O.3     1  UNL1       -0.3779
      9 C          21.7501   71.5366   -3.4030 C.3     1  UNL1        0.1713
     10 C          21.0736   70.1751   -3.1521 C.3     1  UNL1        0.1764
     11 O          19.9832   70.0592   -4.0820 O.3     1  UNL1       -0.3308
     12 O          23.1249   71.3626   -3.7529 O.3     1  UNL1       -0.3794
     13 H          22.2033   73.5517   -5.0666 H       1  UNL1        0.2106
     14 H          23.4747   72.2404   -3.9557 H       1  UNL1        0.2105
     15 N          19.1082   71.2296   -5.9740 N.ar    1  UNL1       -0.2551
     16 C          19.0458   70.9779   -7.2931 C.ar    1  UNL1        0.3323
     17 N          17.9473   71.2882   -8.0068 N.ar    1  UNL1       -0.2743
     18 C          16.8888   71.8691   -7.4067 C.ar    1  UNL1        0.2626
     19 C          16.9435   72.1452   -6.0197 C.ar    1  UNL1        0.0795
     20 C          18.0555   71.8186   -5.3269 C.ar    1  UNL1        0.0869
     21 O          19.9923   70.4543   -7.8486 O.2     1  UNL1       -0.2464
     22 O          15.8971   72.1545   -8.0519 O.2     1  UNL1       -0.2670
     23 H          17.9177   71.0951   -8.9565 H       1  UNL1        0.1734
     24 O          20.9439   71.9191    1.4693 O.3     1  UNL1       -0.2703
     25 P          22.1559   72.4314    2.3955 P.3     1  UNL1        0.2208
     26 O          22.9106   73.4850    1.6819 O.2     1  UNL1       -0.5170
     27 O          23.1379   71.1991    2.7258 O.3     1  UNL1       -0.4371
     28 O          21.5675   73.0298    3.7689 O.3     1  UNL1       -0.2865
     29 C          21.0219   74.3140    3.4614 C.3     1  UNL1        0.2611
     30 C          21.6896   75.3707    4.3433 C.3     1  UNL1        0.1582
     31 C          21.4493   75.0192    5.8158 C.3     1  UNL1        0.1625
     32 C          19.9436   74.8413    6.0379 C.3     1  UNL1        0.1686
     33 C          19.4082   73.8220    5.0300 C.3     1  UNL1        0.1760
     34 O          21.9377   76.0746    6.6459 O.3     1  UNL1       -0.3801
     35 O          19.7088   74.3705    7.3664 O.3     1  UNL1       -0.3794
     36 O          19.6165   74.3018    3.7022 O.3     1  UNL1       -0.3263
     37 H          21.7669   75.8122    7.5609 H       1  UNL1        0.2105
     38 H          18.7510   74.2718    7.4629 H       1  UNL1        0.2105
     39 C          23.9690   74.6591    4.8252 C.2     1  UNL1        0.2231
     40 C          25.4503   74.6858    4.5473 C.3     1  UNL1        0.0946
     41 N          23.1286   75.3959    4.0734 N.am    1  UNL1       -0.2994
     42 O          23.5334   73.9746    5.7263 O.2     1  UNL1       -0.2751
     43 H          23.4770   75.9439    3.3524 H       1  UNL1        0.1496
     44 C          17.9108   73.6128    5.2647 C.3     1  UNL1        0.1693
     45 O          17.7172   72.5157    6.1597 O.3     1  UNL1       -0.3794
     46 H          16.7630   72.4179    6.2802 H       1  UNL1        0.2105
@<TRIPOS>BOND
     1    29    30    1
     2    29    28    1
     3    29    36    1
     4    30    31    1
     5    30    41    1
     6    31    32    1
     7    31    34    1
     8    32    33    1
     9    32    35    1
    10    33    44    1
    11    33    36    1
    12    44    45    1
    13    39    40    1
    14    39    41   am
    15    39    42    2
    16    41    43    1
    17    28    25    1
    18    34    37    1
    19    35    38    1
    20    45    46    1
    21    15    16   ar
    22    15    20   ar
    23    15     6    1
    24    16    17   ar
    25    16    21    2
    26    17    18   ar
    27    17    23    1
    28    18    19   ar
    29    18    22    2
    30    19    20   ar
    31     6     7    1
    32     6    11    1
    33     7     8    1
    34     7     9    1
    35     8    13    1
    36     9    10    1
    37     9    12    1
    38    10    11    1
    39    10     5    1
    40    12    14    1
    41     5     4    1
    42     4     1    1
    43     1     2    2
    44     1     3    1
    45     1    24    1
    46    24    25    1
    47    25    26    2
    48    25    27    1
@<TRIPOS>MOLECULE
UD1
 46 48 0 0 0
SMALL
GASTEIGER

@<TRIPOS>ATOM
      1 P          21.8700   75.0139   -7.3677 P.3     1  UNL1        0.2189
      2 O          20.9833   76.0999   -6.8953 O.2     1  UNL1       -0.5170
      3 O          23.2527   75.0532   -6.5436 O.3     1  UNL1       -0.4371
      4 O          22.1752   75.2150   -8.9359 O.3     1  UNL1       -0.3112
      5 C          22.6417   73.9590   -9.4311 C.3     1  UNL1        0.1811
      6 C          24.6175   74.4932  -12.3871 C.3     1  UNL1        0.2383
      7 C          24.3412   75.9170  -11.8423 C.3     1  UNL1        0.1895
      8 O          25.4161   76.8025  -12.1579 O.3     1  UNL1       -0.3779
      9 C          24.2582   75.6702  -10.3135 C.3     1  UNL1        0.1713
     10 C          23.9516   74.1649  -10.1933 C.3     1  UNL1        0.1764
     11 O          23.8279   73.6438  -11.5277 O.3     1  UNL1       -0.3308
     12 O          25.5038   75.9852   -9.6874 O.3     1  UNL1       -0.3794
     13 H          25.1829   77.6674  -11.7932 H       1  UNL1        0.2106
     14 H          25.6678   76.9240   -9.8484 H       1  UNL1        0.2105
     15 N          24.1761   74.3743  -13.7772 N.ar    1  UNL1       -0.2551
     16 C          24.5255   73.2940  -14.4972 C.ar    1  UNL1        0.3323
     17 N          24.1304   73.1563  -15.7767 N.ar    1  UNL1       -0.2743
     18 C          23.3803   74.1112  -16.3627 C.ar    1  UNL1        0.2626
     19 C          23.0103   75.2565  -15.6181 C.ar    1  UNL1        0.0795
     20 C          23.4158   75.3666  -14.3349 C.ar    1  UNL1        0.0869
     21 O          25.2017   72.4242  -13.9826 O.2     1  UNL1       -0.2464
     22 O          23.0265   73.9900  -17.5209 O.2     1  UNL1       -0.2670
     23 H          24.3877   72.3683  -16.2796 H       1  UNL1        0.1734
     24 O          21.1482   73.5942   -7.1394 O.3     1  UNL1       -0.2703
     25 P          21.1044   73.3451   -5.5503 P.3     1  UNL1        0.2208
     26 O          21.1091   74.6466   -4.8468 O.2     1  UNL1       -0.5170
     27 O          22.3939   72.4903   -5.1046 O.3     1  UNL1       -0.4371
     28 O          19.7672   72.5343   -5.1695 O.3     1  UNL1       -0.2865
     29 C          19.9447   71.1973   -5.6408 C.3     1  UNL1        0.2611
     30 C          18.7667   70.8182   -6.5400 C.3     1  UNL1        0.1582
     31 C          17.4653   70.9414   -5.7397 C.3     1  UNL1        0.1625
     32 C          17.5988   70.1143   -4.4566 C.3     1  UNL1        0.1686
     33 C          18.8635   70.5489   -3.7129 C.3     1  UNL1        0.1760
     34 O          16.3747   70.4481   -6.5200 O.3     1  UNL1       -0.3801
     35 O          16.4562   70.3319   -3.6267 O.3     1  UNL1       -0.3794
     36 O          20.0093   70.3074   -4.5285 O.3     1  UNL1       -0.3263
     37 H          15.5784   70.5446   -5.9797 H       1  UNL1        0.2105
     38 H          16.5814   69.7945   -2.8317 H       1  UNL1        0.2105
     39 C          19.2207   71.3233   -8.8795 C.2     1  UNL1        0.2231
     40 C          19.1735   72.2517  -10.0661 C.3     1  UNL1        0.0946
     41 N          18.7207   71.7195   -7.6932 N.am    1  UNL1       -0.2994
     42 O          19.7095   70.2194   -8.9924 O.2     1  UNL1       -0.2751
     43 H          18.3297   72.6029   -7.6025 H       1  UNL1        0.1496
     44 C          18.9888   69.7512   -2.4132 C.3     1  UNL1        0.1693
     45 O          18.3029   68.5052   -2.5505 O.3     1  UNL1       -0.3794
     46 H          18.4059   68.0352   -1.7120 H       1  UNL1        0.2105
@<TRIPOS>BOND
     1    29    30    1
     2    29    28    1
     3    29    36    1
     4    30    31    1
     5    30    41    1
     6    31    32    1
     7    31    34    1
     8    32    33    1
     9    32    35    1
    10    33    44    1
    11    33    36    1
    12    44    45    1
    13    39    40    1
    14    39    41   am
    15    39    42    2
    16    41    43    1
    17    28    25    1
    18    34    37    1
    19    35    38    1
    20    45    46    1
    21    15    16   ar
    22    15    20   ar
    23    15     6    1
    24    16    17   ar
    25    16    21    2
    26    17    18   ar
    27    17    23    1
    28    18    19   ar
    29    18    22    2
    30    19    20   ar
    31     6     7    1
    32     6    11    1
    33     7     8    1
    34     7     9    1
    35     8    13    1
    36     9    10    1
    37     9    12    1
    38    10    11    1
    39    10     5    1
    40    12    14    1
    41     5     4    1
    42     4     1    1
    43     1     2    2
    44     1     3    1
    45     1    24    1
    46    24    25    1
    47    25    26    2
    48    25    27    1
@<TRIPOS>MOLECULE
UD1
 46 48 0 0 0
SMALL
GASTEIGER

@<TRIPOS>ATOM
      1 P          21.6257   71.0604   -0.8400 P.3     1  UNL1        0.2189
      2 O          21.2745   69.9875    0.1162 O.2     1  UNL1       -0.5170
      3 O          22.9038   70.6081   -1.7085 O.3     1  UNL1       -0.4371
      4 O          21.9780   72.4065   -0.0295 O.3     1  UNL1       -0.3112
      5 C          20.9612   72.5720    0.9600 C.3     1  UNL1        0.1811
      6 C          23.2655   73.7789    3.4421 C.3     1  UNL1        0.2383
      7 C          21.9787   74.6109    3.6699 C.3     1  UNL1        0.1895
      8 O          21.8405   74.9726    5.0444 O.3     1  UNL1       -0.3779
      9 C          20.8678   73.6155    3.2452 C.3     1  UNL1        0.1713
     10 C          21.5998   72.5975    2.3495 C.3     1  UNL1        0.1764
     11 O          22.9704   73.0203    2.2500 O.3     1  UNL1       -0.3308
     12 O          20.3082   72.9713    4.3918 O.3     1  UNL1       -0.3794
     13 H          21.0245   75.4866    5.1182 H       1  UNL1        0.2106
     14 H          19.9189   73.6656    4.9400 H       1  UNL1        0.2105
     15 N          24.4182   74.6539    3.2250 N.ar    1  UNL1       -0.2551
     16 C          25.2442   74.9339    4.2480 C.ar    1  UNL1        0.3323
     17 N          26.3142   75.7325    4.0763 N.ar    1  UNL1       -0.2743
     18 C          26.5705   76.2749    2.8688 C.ar    1  UNL1        0.2626
     19 C          25.7057   75.9932    1.7845 C.ar    1  UNL1        0.0795
     20 C          24.6426   75.1847    1.9833 C.ar    1  UNL1        0.0869
     21 O          25.0263   74.4522    5.3431 O.2     1  UNL1       -0.2464
     22 O          27.5350   77.0009    2.7136 O.2     1  UNL1       -0.2670
     23 H          26.9021   75.9200    4.8243 H       1  UNL1        0.1734
     24 O          20.3795   71.3350   -1.8201 O.3     1  UNL1       -0.2703
     25 P          20.7422   70.6579   -3.2340 P.3     1  UNL1        0.2208
     26 O          21.1979   69.2678   -3.0127 O.2     1  UNL1       -0.5170
     27 O          21.9150   71.4991   -3.9476 O.3     1  UNL1       -0.4371
     28 O          19.4382   70.6512   -4.1775 O.3     1  UNL1       -0.2865
     29 C          19.3423   71.9517   -4.7612 C.3     1  UNL1        0.2611
     30 C          17.9799   72.5586   -4.4213 C.3     1  UNL1        0.1582
     31 C          16.8749   71.6418   -4.9579 C.3     1  UNL1        0.1625
     32 C          17.1247   71.3942   -6.4494 C.3     1  UNL1        0.1686
     33 C          18.5508   70.8722   -6.6359 C.3     1  UNL1        0.1760
     34 O          15.6036   72.2691   -4.7796 O.3     1  UNL1       -0.3801
     35 O          16.1926   70.4267   -6.9359 O.3     1  UNL1       -0.3794
     36 O          19.4853   71.8478   -6.1762 O.3     1  UNL1       -0.3263
     37 H          14.9396   71.6593   -5.1296 H       1  UNL1        0.2105
     38 H          16.3853   70.3005   -7.8758 H       1  UNL1        0.2105
     39 C          17.2930   73.7911   -2.4356 C.2     1  UNL1        0.2231
     40 C          17.1590   73.9221   -0.9399 C.3     1  UNL1        0.0946
     41 N          17.8491   72.6861   -2.9684 N.am    1  UNL1       -0.2994
     42 O          16.9007   74.6810   -3.1597 O.2     1  UNL1       -0.2751
     43 H          18.1634   71.9739   -2.3892 H       1  UNL1        0.1496
     44 C          18.7997   70.5908   -8.1192 C.3     1  UNL1        0.1693
     45 O          17.9365   71.4094   -8.9111 O.3     1  UNL1       -0.3794
     46 H          18.1247   71.2013   -9.8362 H       1  UNL1        0.2105
@<TRIPOS>BOND
     1    29    30    1
     2    29    28    1
     3    29    36    1
     4    30    31    1
     5    30    41    1
     6    31    32    1
     7    31    34    1
     8    32    33    1
     9    32    35    1
    10    33    44    1
    11    33    36    1
    12    44    45    1
    13    39    40    1
    14    39    41   am
    15    39    42    2
    16    41    43    1
    17    28    25    1
    18    34    37    1
    19    35    38    1
    20    45    46    1
    21    15    16   ar
    22    15    20   ar
    23    15     6    1
    24    16    17   ar
    25    16    21    2
    26    17    18   ar
    27    17    23    1
    28    18    19   ar
    29    18    22    2
    30    19    20   ar
    31     6     7    1
    32     6    11    1
    33     7     8    1
    34     7     9    1
    35     8    13    1
    36     9    10    1
    37     9    12    1
    38    10    11    1
    39    10     5    1
    40    12    14    1
    41     5     4    1
    42     4     1    1
    43     1     2    2
    44     1     3    1
    45     1    24    1
    46    24    25    1
    47    25    26    2
    48    25    27    1
