@<TRIPOS>MOLECULE
UDP-glaA
 43 45 0 0 0
SMALL
GASTEIGER

@<TRIPOS>ATOM
      1 P          23.0207   71.5246   -2.6031 P.3     1  UNL1        0.2189
      2 O          23.2407   73.0799   -2.2157 O.3     1  UNL1       -0.4371
      3 O          24.2225   70.8417   -3.1875 O.2     1  UNL1       -0.5170
      4 O          21.6981   71.5382   -3.5338 O.3     1  UNL1       -0.3112
      5 C          21.5884   72.5300   -4.5406 C.3     1  UNL1        0.1811
      6 O          20.6477   70.6538   -5.7107 O.3     1  UNL1       -0.3308
      7 O          21.0602   72.2483   -8.2165 O.3     1  UNL1       -0.3794
      8 O          18.3986   72.5848   -7.7279 O.3     1  UNL1       -0.3779
      9 C          20.6866   72.6947   -6.9131 C.3     1  UNL1        0.1713
     10 C          19.2453   72.3301   -6.6262 C.3     1  UNL1        0.1895
     11 C          21.4383   71.8491   -5.8935 C.3     1  UNL1        0.1764
     12 C          19.3526   70.8497   -6.3021 C.3     1  UNL1        0.2383
     13 H          21.9993   72.4683   -8.3400 H       1  UNL1        0.2105
     14 H          18.4703   73.5315   -7.9394 H       1  UNL1        0.2106
     15 O          16.7972   69.9070   -7.0482 O.2     1  UNL1       -0.2464
     16 O          15.5689   69.2178   -2.6602 O.2     1  UNL1       -0.2670
     17 N          18.3457   70.4170   -5.3757 N.ar    1  UNL1       -0.2551
     18 N          16.1871   69.5649   -4.8627 N.ar    1  UNL1       -0.2743
     19 C          17.0946   69.9620   -5.8536 C.ar    1  UNL1        0.3323
     20 C          18.6024   70.4461   -4.0094 C.ar    1  UNL1        0.0869
     21 C          17.7269   70.0637   -3.0772 C.ar    1  UNL1        0.0795
     22 C          16.3966   69.5762   -3.4924 C.ar    1  UNL1        0.2626
     23 H          15.2808   69.2347   -5.1831 H       1  UNL1        0.1734
     24 O          22.4851   70.8791   -1.2205 O.3     1  UNL1       -0.2703
     25 P          21.3779   71.4017   -0.1653 P.3     1  UNL1        0.2208
     26 O          21.3553   70.2366    0.9564 O.3     1  UNL1       -0.4371
     27 O          20.0386   71.7011   -0.7753 O.2     1  UNL1       -0.5170
     28 O          22.0732   72.6603    0.5672 O.3     1  UNL1       -0.2858
     29 O          23.3218   71.7379    2.3531 O.3     1  UNL1       -0.3226
     30 O          24.2582   75.7784    2.6312 O.3     1  UNL1       -0.3794
     31 O          21.5305   74.9263    2.0482 O.3     1  UNL1       -0.3775
     32 O          25.1297   73.4329    3.8014 O.3     1  UNL1       -0.3792
     33 C          23.9290   74.5348    2.0184 C.3     1  UNL1        0.1718
     34 C          22.5573   74.0489    2.4987 C.3     1  UNL1        0.1968
     35 C          25.0044   73.5058    2.3773 C.3     1  UNL1        0.1723
     36 C          22.2700   72.6343    1.9803 C.3     1  UNL1        0.2706
     37 C          24.5970   72.1321    1.8489 C.3     1  UNL1        0.1830
     38 H          25.1328   76.0458    2.3009 H       1  UNL1        0.2105
     39 H          20.6827   74.5740    2.3674 H       1  UNL1        0.2106
     40 H          24.3571   72.9609    4.1556 H       1  UNL1        0.2106
     41 O          24.8969   69.9221    2.5768 O.co2   1  UNL1       -0.5466
     42 O          26.7663   71.2111    2.3741 O.co2   1  UNL1       -0.5466
     43 C          25.5549   71.0707    2.2881 C.2     1  UNL1        0.0799
@<TRIPOS>UNITY_ATOM_ATTR
41 1
charge -1
@<TRIPOS>BOND
     1     1     4    1
     2     1    24    1
     3     1     2    1
     4     1     3    2
     5    25    28    1
     6    25    24    1
     7    25    26    1
     8    25    27    2
     9     6    11    1
    10     6    12    1
    11    29    36    1
    12    29    37    1
    13     7     9    1
    14     7    13    1
    15     8    10    1
    16     8    14    1
    17     4     5    1
    18    28    36    1
    19    30    33    1
    20    30    38    1
    21    31    34    1
    22    31    39    1
    23    32    35    1
    24    32    40    1
    25    41    43   ar
    26    15    19    2
    27    42    43   ar
    28    16    22    2
    29    17    12    1
    30    17    19   ar
    31    17    20   ar
    32    18    19   ar
    33    18    22   ar
    34    18    23    1
    35     9    10    1
    36     9    11    1
    37    10    12    1
    38    11     5    1
    39    33    34    1
    40    33    35    1
    41    34    36    1
    42    35    37    1
    43    37    43    1
    44    20    21   ar
    45    21    22   ar
@<TRIPOS>MOLECULE
UDP-glaA
 43 45 0 0 0
SMALL
GASTEIGER

@<TRIPOS>ATOM
      1 P          20.8574   73.6188   -4.9613 P.3     1  UNL1        0.2189
      2 O          21.2932   75.0334   -4.3084 O.3     1  UNL1       -0.4371
      3 O          20.9798   73.5466   -6.4552 O.2     1  UNL1       -0.5170
      4 O          19.3784   73.3529   -4.3635 O.3     1  UNL1       -0.3112
      5 C          19.1075   72.1000   -3.7583 C.3     1  UNL1        0.1811
      6 O          17.2109   72.0144   -5.2313 O.3     1  UNL1       -0.3308
      7 O          15.8876   70.3385   -3.1262 O.3     1  UNL1       -0.3794
      8 O          16.6992   68.4770   -4.9460 O.3     1  UNL1       -0.3779
      9 C          17.2574   70.3701   -3.5264 C.3     1  UNL1        0.1713
     10 C          17.4294   69.6836   -4.8649 C.3     1  UNL1        0.1895
     11 C          17.6163   71.8123   -3.8595 C.3     1  UNL1        0.1764
     12 C          16.9198   70.7406   -5.8298 C.3     1  UNL1        0.2383
     13 H          15.8200   70.8225   -2.2855 H       1  UNL1        0.2105
     14 H          17.0099   67.8981   -4.2288 H       1  UNL1        0.2106
     15 O          15.5504   70.6218   -8.2968 O.2     1  UNL1       -0.2464
     16 O          19.4893   70.4649  -10.6841 O.2     1  UNL1       -0.2670
     17 N          17.5622   70.6687   -7.1110 N.ar    1  UNL1       -0.2551
     18 N          17.5127   70.5433   -9.4839 N.ar    1  UNL1       -0.2743
     19 C          16.7827   70.6120   -8.2900 C.ar    1  UNL1        0.3323
     20 C          18.9503   70.6547   -7.1906 C.ar    1  UNL1        0.0869
     21 C          19.6315   70.5894   -8.3367 C.ar    1  UNL1        0.0795
     22 C          18.8928   70.5263   -9.6134 C.ar    1  UNL1        0.2626
     23 H          16.9730   70.5011  -10.3442 H       1  UNL1        0.1734
     24 O          21.7706   72.5526   -4.1584 O.3     1  UNL1       -0.2703
     25 P          23.2831   72.6612   -3.5989 P.3     1  UNL1        0.2208
     26 O          23.9844   73.6974   -4.6239 O.3     1  UNL1       -0.4371
     27 O          23.9891   71.3417   -3.4716 O.2     1  UNL1       -0.5170
     28 O          23.1496   73.4820   -2.2160 O.3     1  UNL1       -0.2858
     29 O          21.8941   72.1802   -0.6901 O.3     1  UNL1       -0.3226
     30 O          22.6306   75.6301    1.5086 O.3     1  UNL1       -0.3794
     31 O          21.9381   75.7953   -1.3197 O.3     1  UNL1       -0.3775
     32 O          21.5648   73.1294    1.9986 O.3     1  UNL1       -0.3792
     33 C          22.8641   74.5823    0.5718 C.3     1  UNL1        0.1718
     34 C          21.8080   74.6125   -0.5381 C.3     1  UNL1        0.1968
     35 C          22.8131   73.2402    1.3070 C.3     1  UNL1        0.1723
     36 C          21.9469   73.3898   -1.4537 C.3     1  UNL1        0.2706
     37 C          22.9193   72.0982    0.2987 C.3     1  UNL1        0.1830
     38 H          23.3194   75.5712    2.1925 H       1  UNL1        0.2105
     39 H          21.2572   75.7655   -2.0127 H       1  UNL1        0.2106
     40 H          20.8641   72.9609    1.3460 H       1  UNL1        0.2106
     41 O          23.9363   70.2819    1.3806 O.co2   1  UNL1       -0.5466
     42 O          21.6752   70.1920    1.1039 O.co2   1  UNL1       -0.5466
     43 C          22.7439   70.7675    0.9585 C.2     1  UNL1        0.0799
@<TRIPOS>UNITY_ATOM_ATTR
41 1
charge -1
@<TRIPOS>BOND
     1     1     4    1
     2     1    24    1
     3     1     2    1
     4     1     3    2
     5    25    28    1
     6    25    24    1
     7    25    26    1
     8    25    27    2
     9     6    11    1
    10     6    12    1
    11    29    36    1
    12    29    37    1
    13     7     9    1
    14     7    13    1
    15     8    10    1
    16     8    14    1
    17     4     5    1
    18    28    36    1
    19    30    33    1
    20    30    38    1
    21    31    34    1
    22    31    39    1
    23    32    35    1
    24    32    40    1
    25    41    43   ar
    26    15    19    2
    27    42    43   ar
    28    16    22    2
    29    17    12    1
    30    17    19   ar
    31    17    20   ar
    32    18    19   ar
    33    18    22   ar
    34    18    23    1
    35     9    10    1
    36     9    11    1
    37    10    12    1
    38    11     5    1
    39    33    34    1
    40    33    35    1
    41    34    36    1
    42    35    37    1
    43    37    43    1
    44    20    21   ar
    45    21    22   ar
@<TRIPOS>MOLECULE
UDP-glaA
 43 45 0 0 0
SMALL
GASTEIGER

@<TRIPOS>ATOM
      1 P          22.7177   71.5582   -2.3283 P.3     1  UNL1        0.2189
      2 O          21.3671   70.6676   -2.3342 O.3     1  UNL1       -0.4371
      3 O          23.8715   70.9533   -1.5834 O.2     1  UNL1       -0.5170
      4 O          22.2263   73.0078   -1.8061 O.3     1  UNL1       -0.3112
      5 C          22.7942   73.5273   -0.6158 C.3     1  UNL1        0.1811
      6 O          22.8510   71.9800    1.2219 O.3     1  UNL1       -0.3308
      7 O          20.6144   73.5903    2.4033 O.3     1  UNL1       -0.3794
      8 O          22.7862   74.4790    3.7923 O.3     1  UNL1       -0.3779
      9 C          21.7405   74.0297    1.6440 C.3     1  UNL1        0.1713
     10 C          22.9961   73.9773    2.4885 C.3     1  UNL1        0.1895
     11 C          22.0282   72.9788    0.5797 C.3     1  UNL1        0.1764
     12 C          23.3213   72.4934    2.4791 C.3     1  UNL1        0.2383
     13 H          19.8428   73.6036    1.8116 H       1  UNL1        0.2105
     14 H          22.4768   75.3971    3.7063 H       1  UNL1        0.2106
     15 O          24.5298   69.9794    2.0373 O.2     1  UNL1       -0.2464
     16 O          28.7347   71.6386    2.9343 O.2     1  UNL1       -0.2670
     17 N          24.7295   72.2401    2.5897 N.ar    1  UNL1       -0.2551
     18 N          26.6228   70.8072    2.4848 N.ar    1  UNL1       -0.2743
     19 C          25.2349   70.9412    2.3480 C.ar    1  UNL1        0.3323
     20 C          25.5945   73.2726    2.9345 C.ar    1  UNL1        0.0869
     21 C          26.9156   73.1289    3.0605 C.ar    1  UNL1        0.0795
     22 C          27.5236   71.8041    2.8261 C.ar    1  UNL1        0.2626
     23 H          27.0083   69.8819    2.3163 H       1  UNL1        0.1734
     24 O          22.9908   71.8125   -3.9018 O.3     1  UNL1       -0.2703
     25 P          22.3064   72.8409   -4.9441 P.3     1  UNL1        0.2208
     26 O          23.0704   72.5239   -6.3341 O.3     1  UNL1       -0.4371
     27 O          22.3657   74.2800   -4.5183 O.2     1  UNL1       -0.5170
     28 O          20.8124   72.2705   -5.1600 O.3     1  UNL1       -0.2858
     29 O          19.8359   70.1194   -5.2965 O.3     1  UNL1       -0.3226
     30 O          17.8257   72.1804   -8.2950 O.3     1  UNL1       -0.3794
     31 O          20.6912   72.5567   -7.9033 O.3     1  UNL1       -0.3775
     32 O          17.6109   69.7167   -7.0645 O.3     1  UNL1       -0.3792
     33 C          18.4921   71.9658   -7.0540 C.3     1  UNL1        0.1718
     34 C          19.9367   71.5144   -7.2941 C.3     1  UNL1        0.1968
     35 C          17.7337   70.8963   -6.2631 C.3     1  UNL1        0.1723
     36 C          20.6081   71.1164   -5.9738 C.3     1  UNL1        0.2706
     37 C          18.5096   70.5497   -4.9942 C.3     1  UNL1        0.1830
     38 H          16.9166   72.4616   -8.0950 H       1  UNL1        0.2105
     39 H          21.5980   72.2291   -8.0266 H       1  UNL1        0.2106
     40 H          18.4775   69.2777   -7.1028 H       1  UNL1        0.2106
     41 O          18.7046   68.9403   -3.2985 O.co2   1  UNL1       -0.5466
     42 O          16.7526   68.9770   -4.4755 O.co2   1  UNL1       -0.5466
     43 C          17.8718   69.4166   -4.2552 C.2     1  UNL1        0.0799
@<TRIPOS>UNITY_ATOM_ATTR
41 1
charge -1
@<TRIPOS>BOND
     1     1     4    1
     2     1    24    1
     3     1     2    1
     4     1     3    2
     5    25    28    1
     6    25    24    1
     7    25    26    1
     8    25    27    2
     9     6    11    1
    10     6    12    1
    11    29    36    1
    12    29    37    1
    13     7     9    1
    14     7    13    1
    15     8    10    1
    16     8    14    1
    17     4     5    1
    18    28    36    1
    19    30    33    1
    20    30    38    1
    21    31    34    1
    22    31    39    1
    23    32    35    1
    24    32    40    1
    25    41    43   ar
    26    15    19    2
    27    42    43   ar
    28    16    22    2
    29    17    12    1
    30    17    19   ar
    31    17    20   ar
    32    18    19   ar
    33    18    22   ar
    34    18    23    1
    35     9    10    1
    36     9    11    1
    37    10    12    1
    38    11     5    1
    39    33    34    1
    40    33    35    1
    41    34    36    1
    42    35    37    1
    43    37    43    1
    44    20    21   ar
    45    21    22   ar
@<TRIPOS>MOLECULE
UDP-glaA
 43 45 0 0 0
SMALL
GASTEIGER

@<TRIPOS>ATOM
      1 P          21.7370   72.9134   -5.9407 P.3     1  UNL1        0.2189
      2 O          23.0724   72.1376   -5.4589 O.3     1  UNL1       -0.4371
      3 O          21.0584   73.7259   -4.8770 O.2     1  UNL1       -0.5170
      4 O          20.8372   71.7545   -6.6212 O.3     1  UNL1       -0.3112
      5 C          20.0610   72.0813   -7.7613 C.3     1  UNL1        0.1811
      6 O          19.0137   69.9861   -7.2252 O.3     1  UNL1       -0.3308
      7 O          18.0596   69.9493  -10.0677 O.3     1  UNL1       -0.3794
      8 O          15.8476   70.7819   -8.7078 O.3     1  UNL1       -0.3779
      9 C          18.2162   71.0576   -9.1818 C.3     1  UNL1        0.1713
     10 C          17.1128   71.0610   -8.1449 C.3     1  UNL1        0.1895
     11 C          19.4535   70.8068   -8.3298 C.3     1  UNL1        0.1764
     12 C          17.5772   69.9778   -7.1862 C.3     1  UNL1        0.2383
     13 H          18.8084   69.9660  -10.6879 H       1  UNL1        0.2105
     14 H          15.6737   71.4571   -9.3861 H       1  UNL1        0.2106
     15 O          16.0064   68.1837   -5.6731 O.2     1  UNL1       -0.2464
     16 O          15.9767   70.9997   -2.0251 O.2     1  UNL1       -0.2670
     17 N          17.1451   70.2163   -5.8387 N.ar    1  UNL1       -0.2551
     18 N          15.9922   69.5874   -3.8577 N.ar    1  UNL1       -0.2743
     19 C          16.3582   69.2512   -5.1678 C.ar    1  UNL1        0.3323
     20 C          17.5010   71.3964   -5.1953 C.ar    1  UNL1        0.0869
     21 C          17.1446   71.7021   -3.9458 C.ar    1  UNL1        0.0795
     22 C          16.3216   70.7485   -3.1757 C.ar    1  UNL1        0.2626
     23 H          15.4258   68.9086   -3.3563 H       1  UNL1        0.1734
     24 O          22.2531   73.7668   -7.2137 O.3     1  UNL1       -0.2703
     25 P          22.7753   75.2924   -7.3261 P.3     1  UNL1        0.2208
     26 O          23.8256   75.4162   -6.1023 O.3     1  UNL1       -0.4371
     27 O          21.6808   76.3208   -7.3102 O.2     1  UNL1       -0.5170
     28 O          23.6913   75.3142   -8.6543 O.3     1  UNL1       -0.2858
     29 O          25.7496   76.4801   -8.7161 O.3     1  UNL1       -0.3226
     30 O          24.8453   76.0949  -12.7551 O.3     1  UNL1       -0.3794
     31 O          22.7574   76.7428  -10.8245 O.3     1  UNL1       -0.3775
     32 O          27.0036   76.9454  -11.2557 O.3     1  UNL1       -0.3792
     33 C          24.9072   75.7512  -11.3736 C.3     1  UNL1        0.1718
     34 C          24.1500   76.7836  -10.5316 C.3     1  UNL1        0.1968
     35 C          26.3753   75.6981  -10.9419 C.3     1  UNL1        0.1723
     36 C          24.3546   76.5190   -9.0347 C.3     1  UNL1        0.2706
     37 C          26.4588   75.4715   -9.4339 C.3     1  UNL1        0.1830
     38 H          25.3384   75.4173  -13.2483 H       1  UNL1        0.2105
     39 H          22.3199   77.4044  -10.2627 H       1  UNL1        0.2106
     40 H          26.6933   77.6153  -10.6232 H       1  UNL1        0.2106
     41 O          28.6892   76.0135   -9.9193 O.co2   1  UNL1       -0.5466
     42 O          28.2444   75.2229   -7.8278 O.co2   1  UNL1       -0.5466
     43 C          27.8714   75.5419   -8.9475 C.2     1  UNL1        0.0799
@<TRIPOS>UNITY_ATOM_ATTR
41 1
charge -1
@<TRIPOS>BOND
     1     1     4    1
     2     1    24    1
     3     1     2    1
     4     1     3    2
     5    25    28    1
     6    25    24    1
     7    25    26    1
     8    25    27    2
     9     6    11    1
    10     6    12    1
    11    29    36    1
    12    29    37    1
    13     7     9    1
    14     7    13    1
    15     8    10    1
    16     8    14    1
    17     4     5    1
    18    28    36    1
    19    30    33    1
    20    30    38    1
    21    31    34    1
    22    31    39    1
    23    32    35    1
    24    32    40    1
    25    41    43   ar
    26    15    19    2
    27    42    43   ar
    28    16    22    2
    29    17    12    1
    30    17    19   ar
    31    17    20   ar
    32    18    19   ar
    33    18    22   ar
    34    18    23    1
    35     9    10    1
    36     9    11    1
    37    10    12    1
    38    11     5    1
    39    33    34    1
    40    33    35    1
    41    34    36    1
    42    35    37    1
    43    37    43    1
    44    20    21   ar
    45    21    22   ar
@<TRIPOS>MOLECULE
UDP-glaA
 43 45 0 0 0
SMALL
GASTEIGER

@<TRIPOS>ATOM
      1 P          22.8084   71.5111   -2.7319 P.3     1  UNL1        0.2189
      2 O          22.8944   73.0991   -2.4348 O.3     1  UNL1       -0.4371
      3 O          24.1159   70.8599   -3.0762 O.2     1  UNL1       -0.5170
      4 O          21.6453   71.3860   -3.8486 O.3     1  UNL1       -0.3112
      5 C          20.7319   70.3059   -3.7573 C.3     1  UNL1        0.1811
      6 O          18.9079   71.5435   -4.7142 O.3     1  UNL1       -0.3308
      7 O          17.2116   70.3608   -2.5428 O.3     1  UNL1       -0.3794
      8 O          16.5812   68.8154   -4.6992 O.3     1  UNL1       -0.3779
      9 C          18.2942   69.7733   -3.2643 C.3     1  UNL1        0.1713
     10 C          17.8577   69.4198   -4.6704 C.3     1  UNL1        0.1895
     11 C          19.3339   70.8573   -3.5163 C.3     1  UNL1        0.1764
     12 C          17.8779   70.7748   -5.3573 C.3     1  UNL1        0.2383
     13 H          17.5481   70.6057   -1.6639 H       1  UNL1        0.2105
     14 H          16.6242   68.0144   -4.1491 H       1  UNL1        0.2106
     15 O          15.9531   70.2884   -7.3657 O.2     1  UNL1       -0.2464
     16 O          19.1333   70.4101  -10.6990 O.2     1  UNL1       -0.2670
     17 N          18.1749   70.6751   -6.7577 N.ar    1  UNL1       -0.2551
     18 N          17.5381   70.3488   -9.0242 N.ar    1  UNL1       -0.2743
     19 C          17.1354   70.4276   -7.6845 C.ar    1  UNL1        0.3323
     20 C          19.4847   70.8218   -7.2007 C.ar    1  UNL1        0.0869
     21 C          19.8525   70.7445   -8.4816 C.ar    1  UNL1        0.0795
     22 C          18.8279   70.4876   -9.5129 C.ar    1  UNL1        0.2626
     23 H          16.8075   70.1709   -9.7081 H       1  UNL1        0.1734
     24 O          22.0973   70.9313   -1.4003 O.3     1  UNL1       -0.2703
     25 P          22.4854   71.0844    0.1612 P.3     1  UNL1        0.2208
     26 O          24.0871   70.8590    0.1693 O.3     1  UNL1       -0.4371
     27 O          21.7258   70.1682    1.0775 O.2     1  UNL1       -0.5170
     28 O          22.2923   72.6547    0.4786 O.3     1  UNL1       -0.2858
     29 O          21.3227   73.1909    2.5694 O.3     1  UNL1       -0.3226
     30 O          21.1415   76.8290    0.5668 O.3     1  UNL1       -0.3794
     31 O          20.5366   74.3391   -0.8263 O.3     1  UNL1       -0.3775
     32 O          20.6779   75.9296    3.1370 O.3     1  UNL1       -0.3792
     33 C          21.6507   75.5569    0.9577 C.3     1  UNL1        0.1718
     34 C          20.6597   74.4480    0.5879 C.3     1  UNL1        0.1968
     35 C          21.8900   75.5626    2.4700 C.3     1  UNL1        0.1723
     36 C          21.1175   73.0988    1.1558 C.3     1  UNL1        0.2706
     37 C          22.3004   74.1654    2.9299 C.3     1  UNL1        0.1830
     38 H          21.7985   77.4989    0.8219 H       1  UNL1        0.2105
     39 H          19.9085   73.6208   -1.0116 H       1  UNL1        0.2106
     40 H          20.0617   75.1788    3.0933 H       1  UNL1        0.2106
     41 O          22.3776   72.8052    4.8398 O.co2   1  UNL1       -0.5466
     42 O          22.5405   75.0563    5.1612 O.co2   1  UNL1       -0.5466
     43 C          22.4191   74.0924    4.4191 C.2     1  UNL1        0.0799
@<TRIPOS>UNITY_ATOM_ATTR
41 1
charge -1
@<TRIPOS>BOND
     1     1     4    1
     2     1    24    1
     3     1     2    1
     4     1     3    2
     5    25    28    1
     6    25    24    1
     7    25    26    1
     8    25    27    2
     9     6    11    1
    10     6    12    1
    11    29    36    1
    12    29    37    1
    13     7     9    1
    14     7    13    1
    15     8    10    1
    16     8    14    1
    17     4     5    1
    18    28    36    1
    19    30    33    1
    20    30    38    1
    21    31    34    1
    22    31    39    1
    23    32    35    1
    24    32    40    1
    25    41    43   ar
    26    15    19    2
    27    42    43   ar
    28    16    22    2
    29    17    12    1
    30    17    19   ar
    31    17    20   ar
    32    18    19   ar
    33    18    22   ar
    34    18    23    1
    35     9    10    1
    36     9    11    1
    37    10    12    1
    38    11     5    1
    39    33    34    1
    40    33    35    1
    41    34    36    1
    42    35    37    1
    43    37    43    1
    44    20    21   ar
    45    21    22   ar
@<TRIPOS>MOLECULE
UDP-glaA
 43 45 0 0 0
SMALL
GASTEIGER

@<TRIPOS>ATOM
      1 P          23.5176   72.1121   -3.3717 P.3     1  UNL1        0.2189
      2 O          24.2234   70.7078   -2.9879 O.3     1  UNL1       -0.4371
      3 O          24.4134   73.1058   -4.0516 O.2     1  UNL1       -0.5170
      4 O          22.8478   72.6037   -1.9841 O.3     1  UNL1       -0.3112
      5 C          21.8209   71.8131   -1.4102 C.3     1  UNL1        0.1811
      6 O          21.8582   72.0654    0.9792 O.3     1  UNL1       -0.3308
      7 O          20.4996   74.7013    0.5348 O.3     1  UNL1       -0.3794
      8 O          23.0919   75.4320    0.9615 O.3     1  UNL1       -0.3779
      9 C          21.4987   74.0557   -0.2544 C.3     1  UNL1        0.1713
     10 C          22.8472   74.1470    0.4282 C.3     1  UNL1        0.1895
     11 C          21.2264   72.5576   -0.2231 C.3     1  UNL1        0.1764
     12 C          22.7293   73.0809    1.5040 C.3     1  UNL1        0.2383
     13 H          19.6490   74.5836    0.0785 H       1  UNL1        0.2105
     14 H          23.0430   76.0679    0.2271 H       1  UNL1        0.2106
     15 O          23.3503   70.3490    1.1480 O.2     1  UNL1       -0.2464
     16 O          27.6187   70.9171    2.7901 O.2     1  UNL1       -0.2670
     17 N          23.9950   72.4881    1.8294 N.ar    1  UNL1       -0.2551
     18 N          25.4752   70.6336    1.9664 N.ar    1  UNL1       -0.2743
     19 C          24.2044   71.1060    1.6130 C.ar    1  UNL1        0.3323
     20 C          25.0133   73.2741    2.3573 C.ar    1  UNL1        0.0869
     21 C          26.2197   72.8089    2.6888 C.ar    1  UNL1        0.0795
     22 C          26.5197   71.3764    2.4949 C.ar    1  UNL1        0.2626
     23 H          25.6482   69.6428    1.8200 H       1  UNL1        0.1734
     24 O          22.2396   71.6479   -4.2473 O.3     1  UNL1       -0.2703
     25 P          21.4806   72.3679   -5.4794 P.3     1  UNL1        0.2208
     26 O          22.4249   72.0267   -6.7474 O.3     1  UNL1       -0.4371
     27 O          21.2249   73.8335   -5.2734 O.2     1  UNL1       -0.5170
     28 O          20.1499   71.4853   -5.7119 O.3     1  UNL1       -0.2858
     29 O          18.9520   71.8538   -7.7190 O.3     1  UNL1       -0.3226
     30 O          16.2316   69.6560   -5.4721 O.3     1  UNL1       -0.3794
     31 O          17.8389   71.7451   -4.2238 O.3     1  UNL1       -0.3775
     32 O          16.4125   70.5641   -8.0745 O.3     1  UNL1       -0.3792
     33 C          17.4954   70.0883   -5.9684 C.3     1  UNL1        0.1718
     34 C          17.7250   71.5655   -5.6315 C.3     1  UNL1        0.1968
     35 C          17.5271   69.8860   -7.4858 C.3     1  UNL1        0.1723
     36 C          19.0001   72.0849   -6.3072 C.3     1  UNL1        0.2706
     37 C          18.8165   70.4738   -8.0551 C.3     1  UNL1        0.1830
     38 H          16.1281   68.7188   -5.7098 H       1  UNL1        0.2105
     39 H          17.9923   72.6908   -4.0601 H       1  UNL1        0.2106
     40 H          16.5871   71.5203   -8.0547 H       1  UNL1        0.2106
     41 O          17.9471   69.4932  -10.0009 O.co2   1  UNL1       -0.5466
     42 O          19.5396   71.1018  -10.2715 O.co2   1  UNL1       -0.5466
     43 C          18.8318   70.4146   -9.5495 C.2     1  UNL1        0.0799
@<TRIPOS>UNITY_ATOM_ATTR
41 1
charge -1
@<TRIPOS>BOND
     1     1     4    1
     2     1    24    1
     3     1     2    1
     4     1     3    2
     5    25    28    1
     6    25    24    1
     7    25    26    1
     8    25    27    2
     9     6    11    1
    10     6    12    1
    11    29    36    1
    12    29    37    1
    13     7     9    1
    14     7    13    1
    15     8    10    1
    16     8    14    1
    17     4     5    1
    18    28    36    1
    19    30    33    1
    20    30    38    1
    21    31    34    1
    22    31    39    1
    23    32    35    1
    24    32    40    1
    25    41    43   ar
    26    15    19    2
    27    42    43   ar
    28    16    22    2
    29    17    12    1
    30    17    19   ar
    31    17    20   ar
    32    18    19   ar
    33    18    22   ar
    34    18    23    1
    35     9    10    1
    36     9    11    1
    37    10    12    1
    38    11     5    1
    39    33    34    1
    40    33    35    1
    41    34    36    1
    42    35    37    1
    43    37    43    1
    44    20    21   ar
    45    21    22   ar
@<TRIPOS>MOLECULE
UDP-glaA
 43 45 0 0 0
SMALL
GASTEIGER

@<TRIPOS>ATOM
      1 P          23.3711   71.9735   -3.4641 P.3     1  UNL1        0.2189
      2 O          24.1258   72.9053   -4.5502 O.3     1  UNL1       -0.4371
      3 O          24.1431   70.7651   -3.0215 O.2     1  UNL1       -0.5170
      4 O          21.9303   71.6794   -4.1373 O.3     1  UNL1       -0.3112
      5 C          21.1896   70.5570   -3.6890 C.3     1  UNL1        0.1811
      6 O          19.2058   71.6195   -4.5315 O.3     1  UNL1       -0.3308
      7 O          17.7731   70.3560   -2.2201 O.3     1  UNL1       -0.3794
      8 O          17.1191   68.7133   -4.2960 O.3     1  UNL1       -0.3779
      9 C          18.8458   69.8409   -3.0085 C.3     1  UNL1        0.1713
     10 C          18.3402   69.4196   -4.3721 C.3     1  UNL1        0.1895
     11 C          19.7718   70.9992   -3.3559 C.3     1  UNL1        0.1764
     12 C          18.1992   70.7547   -5.0830 C.3     1  UNL1        0.2383
     13 H          18.1505   70.6484   -1.3730 H       1  UNL1        0.2105
     14 H          17.2674   67.9318   -3.7362 H       1  UNL1        0.2106
     15 O          16.2148   69.9432   -6.9212 O.2     1  UNL1       -0.2464
     16 O          19.0919   70.3709  -10.4958 O.2     1  UNL1       -0.2670
     17 N          18.4020   70.6457   -6.4995 N.ar    1  UNL1       -0.2551
     18 N          17.6489   70.1562   -8.7000 N.ar    1  UNL1       -0.2743
     19 C          17.3399   70.2282   -7.3352 C.ar    1  UNL1        0.3323
     20 C          19.6429   70.9509   -7.0475 C.ar    1  UNL1        0.0869
     21 C          19.9216   70.8778   -8.3509 C.ar    1  UNL1        0.0795
     22 C          18.8678   70.4491   -9.2918 C.ar    1  UNL1        0.2626
     23 H          16.9006   69.8577   -9.3197 H       1  UNL1        0.1734
     24 O          23.0128   73.0148   -2.2799 O.3     1  UNL1       -0.2703
     25 P          22.9648   72.8208   -0.6760 P.3     1  UNL1        0.2208
     26 O          21.3997   72.5366   -0.3832 O.3     1  UNL1       -0.4371
     27 O          23.5423   73.9691    0.1010 O.2     1  UNL1       -0.5170
     28 O          23.6931   71.4049   -0.4134 O.3     1  UNL1       -0.2858
     29 O          24.7862   71.7095    1.6631 O.3     1  UNL1       -0.3226
     30 O          20.8000   72.3024    2.6820 O.3     1  UNL1       -0.3794
     31 O          21.5562   70.1781    0.8323 O.3     1  UNL1       -0.3775
     32 O          23.2513   72.5958    3.9209 O.3     1  UNL1       -0.3792
     33 C          21.9804   72.3276    1.8843 C.3     1  UNL1        0.1718
     34 C          22.4851   70.9029    1.6316 C.3     1  UNL1        0.1968
     35 C          23.0531   73.1419    2.6127 C.3     1  UNL1        0.1723
     36 C          23.8447   70.9261    0.9222 C.3     1  UNL1        0.2706
     37 C          24.3693   73.0621    1.8423 C.3     1  UNL1        0.1830
     38 H          20.5184   73.2231    2.8183 H       1  UNL1        0.2105
     39 H          21.9219   69.2886    0.6914 H       1  UNL1        0.2106
     40 H          23.7404   71.7599    3.8358 H       1  UNL1        0.2106
     41 O          25.3741   75.0830    2.4827 O.co2   1  UNL1       -0.5466
     42 O          26.3619   73.1586    3.2024 O.co2   1  UNL1       -0.5466
     43 C          25.4793   73.7361    2.5843 C.2     1  UNL1        0.0799
@<TRIPOS>UNITY_ATOM_ATTR
41 1
charge -1
@<TRIPOS>BOND
     1     1     4    1
     2     1    24    1
     3     1     2    1
     4     1     3    2
     5    25    28    1
     6    25    24    1
     7    25    26    1
     8    25    27    2
     9     6    11    1
    10     6    12    1
    11    29    36    1
    12    29    37    1
    13     7     9    1
    14     7    13    1
    15     8    10    1
    16     8    14    1
    17     4     5    1
    18    28    36    1
    19    30    33    1
    20    30    38    1
    21    31    34    1
    22    31    39    1
    23    32    35    1
    24    32    40    1
    25    41    43   ar
    26    15    19    2
    27    42    43   ar
    28    16    22    2
    29    17    12    1
    30    17    19   ar
    31    17    20   ar
    32    18    19   ar
    33    18    22   ar
    34    18    23    1
    35     9    10    1
    36     9    11    1
    37    10    12    1
    38    11     5    1
    39    33    34    1
    40    33    35    1
    41    34    36    1
    42    35    37    1
    43    37    43    1
    44    20    21   ar
    45    21    22   ar
@<TRIPOS>MOLECULE
UDP-glaA
 43 45 0 0 0
SMALL
GASTEIGER

@<TRIPOS>ATOM
      1 P          23.4801   72.0350   -3.2876 P.3     1  UNL1        0.2189
      2 O          24.1368   73.0776   -4.3359 O.3     1  UNL1       -0.4371
      3 O          24.2290   70.7447   -3.1249 O.2     1  UNL1       -0.5170
      4 O          21.9461   71.8999   -3.7816 O.3     1  UNL1       -0.3112
      5 C          21.5067   72.7119   -4.8572 C.3     1  UNL1        0.1811
      6 O          20.7044   70.6595   -5.8156 O.3     1  UNL1       -0.3308
      7 O          21.1167   71.9628   -8.4844 O.3     1  UNL1       -0.3794
      8 O          18.4264   72.2066   -8.1119 O.3     1  UNL1       -0.3779
      9 C          20.6771   72.5407   -7.2554 C.3     1  UNL1        0.1713
     10 C          19.2480   72.1333   -6.9650 C.3     1  UNL1        0.1895
     11 C          21.4374   71.8664   -6.1209 C.3     1  UNL1        0.1764
     12 C          19.4214   70.7108   -6.4608 C.3     1  UNL1        0.2383
     13 H          22.0466   72.2184   -8.6086 H       1  UNL1        0.2105
     14 H          18.4557   73.1237   -8.4348 H       1  UNL1        0.2106
     15 O          16.8713   69.7216   -7.1639 O.2     1  UNL1       -0.2464
     16 O          15.6124   69.3096   -2.7498 O.2     1  UNL1       -0.2670
     17 N          18.4081   70.3367   -5.5160 N.ar    1  UNL1       -0.2551
     18 N          16.2460   69.5176   -4.9654 N.ar    1  UNL1       -0.2743
     19 C          17.1603   69.8519   -5.9730 C.ar    1  UNL1        0.3323
     20 C          18.6552   70.4520   -4.1525 C.ar    1  UNL1        0.0869
     21 C          17.7732   70.1286   -3.2042 C.ar    1  UNL1        0.0795
     22 C          16.4459   69.6153   -3.5971 C.ar    1  UNL1        0.2626
     23 H          15.3419   69.1674   -5.2707 H       1  UNL1        0.1734
     24 O          23.3503   72.9135   -1.9360 O.3     1  UNL1       -0.2703
     25 P          23.2439   74.5112   -1.7161 P.3     1  UNL1        0.2208
     26 O          21.8645   74.8981   -2.4669 O.3     1  UNL1       -0.4371
     27 O          24.4443   75.2795   -2.1901 O.2     1  UNL1       -0.5170
     28 O          22.9174   74.6870   -0.1457 O.3     1  UNL1       -0.2858
     29 O          21.1601   73.1287    0.1427 O.3     1  UNL1       -0.3226
     30 O          22.0307   74.1955    4.0649 O.3     1  UNL1       -0.3794
     31 O          21.9809   76.2110    1.9575 O.3     1  UNL1       -0.3775
     32 O          20.4559   72.3099    2.8021 O.3     1  UNL1       -0.3792
     33 C          22.2618   73.9101    2.6881 C.3     1  UNL1        0.1718
     34 C          21.4817   74.8868    1.8017 C.3     1  UNL1        0.1968
     35 C          21.8197   72.4729    2.3992 C.3     1  UNL1        0.1723
     36 C          21.5861   74.4830    0.3257 C.3     1  UNL1        0.2706
     37 C          21.9263   72.1945    0.9015 C.3     1  UNL1        0.1830
     38 H          22.5406   73.5531    4.5873 H       1  UNL1        0.2105
     39 H          21.4645   76.7900    1.3720 H       1  UNL1        0.2106
     40 H          19.8872   72.7658    2.1588 H       1  UNL1        0.2106
     41 O          20.5518   70.9229   -0.5118 O.co2   1  UNL1       -0.5466
     42 O          21.6480   69.8087    1.1477 O.co2   1  UNL1       -0.5466
     43 C          21.3823   70.8448    0.5558 C.2     1  UNL1        0.0799
@<TRIPOS>UNITY_ATOM_ATTR
41 1
charge -1
@<TRIPOS>BOND
     1     1     4    1
     2     1    24    1
     3     1     2    1
     4     1     3    2
     5    25    28    1
     6    25    24    1
     7    25    26    1
     8    25    27    2
     9     6    11    1
    10     6    12    1
    11    29    36    1
    12    29    37    1
    13     7     9    1
    14     7    13    1
    15     8    10    1
    16     8    14    1
    17     4     5    1
    18    28    36    1
    19    30    33    1
    20    30    38    1
    21    31    34    1
    22    31    39    1
    23    32    35    1
    24    32    40    1
    25    41    43   ar
    26    15    19    2
    27    42    43   ar
    28    16    22    2
    29    17    12    1
    30    17    19   ar
    31    17    20   ar
    32    18    19   ar
    33    18    22   ar
    34    18    23    1
    35     9    10    1
    36     9    11    1
    37    10    12    1
    38    11     5    1
    39    33    34    1
    40    33    35    1
    41    34    36    1
    42    35    37    1
    43    37    43    1
    44    20    21   ar
    45    21    22   ar
@<TRIPOS>MOLECULE
UDP-glaA
 43 45 0 0 0
SMALL
GASTEIGER

@<TRIPOS>ATOM
      1 P          21.0965   72.7153   -4.3578 P.3     1  UNL1        0.2189
      2 O          20.7173   74.0692   -3.5575 O.3     1  UNL1       -0.4371
      3 O          21.9084   72.9224   -5.6029 O.2     1  UNL1       -0.5170
      4 O          19.6749   71.9716   -4.5613 O.3     1  UNL1       -0.3112
      5 C          19.0919   71.3094   -3.4519 C.3     1  UNL1        0.1811
      6 O          17.2498   71.8293   -4.9046 O.3     1  UNL1       -0.3308
      7 O          15.5444   70.2738   -2.9906 O.3     1  UNL1       -0.3794
      8 O          15.9364   68.4950   -5.0198 O.3     1  UNL1       -0.3779
      9 C          16.8912   70.0354   -3.3993 C.3     1  UNL1        0.1713
     10 C          16.9224   69.4844   -4.8092 C.3     1  UNL1        0.1895
     11 C          17.5763   71.3850   -3.5692 C.3     1  UNL1        0.1764
     12 C          16.6840   70.7328   -5.6415 C.3     1  UNL1        0.2383
     13 H          15.5763   70.6616   -2.0995 H       1  UNL1        0.2105
     14 H          16.0947   67.7825   -4.3768 H       1  UNL1        0.2106
     15 O          15.4884   71.5934   -8.0509 O.2     1  UNL1       -0.2464
     16 O          19.1916   70.4086  -10.5251 O.2     1  UNL1       -0.2670
     17 N          17.3130   70.6615   -6.9294 N.ar    1  UNL1       -0.2551
     18 N          17.3331   71.0024   -9.2814 N.ar    1  UNL1       -0.2743
     19 C          16.6258   71.1198   -8.0776 C.ar    1  UNL1        0.3323
     20 C          18.5973   70.1415   -7.0456 C.ar    1  UNL1        0.0869
     21 C          19.2584   70.0367   -8.2006 C.ar    1  UNL1        0.0795
     22 C          18.6112   70.4919   -9.4470 C.ar    1  UNL1        0.2626
     23 H          16.8583   71.3251  -10.1202 H       1  UNL1        0.1734
     24 O          21.8185   71.8150   -3.2250 O.3     1  UNL1       -0.2703
     25 P          23.3063   71.8924   -2.5981 P.3     1  UNL1        0.2208
     26 O          23.8600   73.3155   -3.1313 O.3     1  UNL1       -0.4371
     27 O          24.1804   70.7198   -2.9395 O.2     1  UNL1       -0.5170
     28 O          23.0727   72.1117   -1.0165 O.3     1  UNL1       -0.2858
     29 O          24.4126   71.1376    0.6732 O.3     1  UNL1       -0.3226
     30 O          20.8469   71.8455    2.6891 O.3     1  UNL1       -0.3794
     31 O          20.8269   70.8324   -0.0457 O.3     1  UNL1       -0.3775
     32 O          23.4021   71.0368    3.3578 O.3     1  UNL1       -0.3792
     33 C          21.9051   72.0536    1.7578 C.3     1  UNL1        0.1718
     34 C          21.9897   70.8815    0.7743 C.3     1  UNL1        0.1968
     35 C          23.2222   72.1883    2.5268 C.3     1  UNL1        0.1723
     36 C          23.2283   71.0118   -0.1208 C.3     1  UNL1        0.2706
     37 C          24.3859   72.2696    1.5412 C.3     1  UNL1        0.1830
     38 H          20.8322   72.6085    3.2918 H       1  UNL1        0.2105
     39 H          20.9299   70.0831   -0.6562 H       1  UNL1        0.2106
     40 H          23.6433   70.2831    2.7932 H       1  UNL1        0.2106
     41 O          26.2041   71.0156    2.3321 O.co2   1  UNL1       -0.5466
     42 O          26.2602   73.2660    2.6919 O.co2   1  UNL1       -0.5466
     43 C          25.7034   72.2718    2.2491 C.2     1  UNL1        0.0799
@<TRIPOS>UNITY_ATOM_ATTR
41 1
charge -1
@<TRIPOS>BOND
     1     1     4    1
     2     1    24    1
     3     1     2    1
     4     1     3    2
     5    25    28    1
     6    25    24    1
     7    25    26    1
     8    25    27    2
     9     6    11    1
    10     6    12    1
    11    29    36    1
    12    29    37    1
    13     7     9    1
    14     7    13    1
    15     8    10    1
    16     8    14    1
    17     4     5    1
    18    28    36    1
    19    30    33    1
    20    30    38    1
    21    31    34    1
    22    31    39    1
    23    32    35    1
    24    32    40    1
    25    41    43   ar
    26    15    19    2
    27    42    43   ar
    28    16    22    2
    29    17    12    1
    30    17    19   ar
    31    17    20   ar
    32    18    19   ar
    33    18    22   ar
    34    18    23    1
    35     9    10    1
    36     9    11    1
    37    10    12    1
    38    11     5    1
    39    33    34    1
    40    33    35    1
    41    34    36    1
    42    35    37    1
    43    37    43    1
    44    20    21   ar
    45    21    22   ar
@<TRIPOS>MOLECULE
UDP-glaA
 43 45 0 0 0
SMALL
GASTEIGER

@<TRIPOS>ATOM
      1 P          21.3071   73.4404   -1.5489 P.3     1  UNL1        0.2189
      2 O          20.3003   74.2195   -0.5506 O.3     1  UNL1       -0.4371
      3 O          22.6660   74.0615   -1.6889 O.2     1  UNL1       -0.5170
      4 O          20.4590   73.2891   -2.9177 O.3     1  UNL1       -0.3112
      5 C          20.0934   71.9890   -3.3479 C.3     1  UNL1        0.1811
      6 O          17.9763   72.1120   -4.4779 O.3     1  UNL1       -0.3308
      7 O          16.8886   70.4603   -2.2240 O.3     1  UNL1       -0.3794
      8 O          17.2244   68.6169   -4.2051 O.3     1  UNL1       -0.3779
      9 C          18.1697   70.4010   -2.8508 C.3     1  UNL1        0.1713
     10 C          18.0567   69.7583   -4.2171 C.3     1  UNL1        0.1895
     11 C          18.5875   71.8231   -3.2012 C.3     1  UNL1        0.1764
     12 C          17.4831   70.8904   -5.0522 C.3     1  UNL1        0.2383
     13 H          17.0038   70.9135   -1.3714 H       1  UNL1        0.2105
     14 H          17.6012   67.9866   -3.5671 H       1  UNL1        0.2106
     15 O          15.9585   69.7085   -7.1147 O.2     1  UNL1       -0.2464
     16 O          19.1587   70.6793  -10.2858 O.2     1  UNL1       -0.2670
     17 N          17.8933   70.8208   -6.4256 N.ar    1  UNL1       -0.2551
     18 N          17.5533   70.1922   -8.6923 N.ar    1  UNL1       -0.2743
     19 C          17.0541   70.2049   -7.3832 C.ar    1  UNL1        0.3323
     20 C          19.1157   71.3592   -6.8120 C.ar    1  UNL1        0.0869
     21 C          19.5774   71.3396   -8.0643 C.ar    1  UNL1        0.0795
     22 C          18.7625   70.7143   -9.1248 C.ar    1  UNL1        0.2626
     23 H          16.9671   69.7540   -9.3975 H       1  UNL1        0.1734
     24 O          21.3121   71.9356   -0.9567 O.3     1  UNL1       -0.2703
     25 P          22.1783   71.2673    0.2331 P.3     1  UNL1        0.2208
     26 O          23.5891   70.9270   -0.4810 O.3     1  UNL1       -0.4371
     27 O          21.5164   70.0902    0.8906 O.2     1  UNL1       -0.5170
     28 O          22.5109   72.4894    1.2329 O.3     1  UNL1       -0.2858
     29 O          24.1360   72.7749    2.9291 O.3     1  UNL1       -0.3226
     30 O          20.8504   74.7561    4.5286 O.3     1  UNL1       -0.3794
     31 O          20.5127   72.2250    3.1197 O.3     1  UNL1       -0.3775
     32 O          23.5217   74.4631    5.1676 O.3     1  UNL1       -0.3792
     33 C          21.7512   74.2743    3.5353 C.3     1  UNL1        0.1718
     34 C          21.7734   72.7421    3.5320 C.3     1  UNL1        0.1968
     35 C          23.1516   74.8180    3.8312 C.3     1  UNL1        0.1723
     36 C          22.8627   72.2167    2.5887 C.3     1  UNL1        0.2706
     37 C          24.1574   74.1999    2.8623 C.3     1  UNL1        0.1830
     38 H          20.8705   75.7278    4.4964 H       1  UNL1        0.2105
     39 H          20.5778   71.2551    3.1240 H       1  UNL1        0.2106
     40 H          23.7301   73.5137    5.1887 H       1  UNL1        0.2106
     41 O          25.9747   75.6049    2.3857 O.co2   1  UNL1       -0.5466
     42 O          26.2394   74.1041    4.0812 O.co2   1  UNL1       -0.5466
     43 C          25.5583   74.6029    3.1970 C.2     1  UNL1        0.0799
@<TRIPOS>UNITY_ATOM_ATTR
41 1
charge -1
@<TRIPOS>BOND
     1     1     4    1
     2     1    24    1
     3     1     2    1
     4     1     3    2
     5    25    28    1
     6    25    24    1
     7    25    26    1
     8    25    27    2
     9     6    11    1
    10     6    12    1
    11    29    36    1
    12    29    37    1
    13     7     9    1
    14     7    13    1
    15     8    10    1
    16     8    14    1
    17     4     5    1
    18    28    36    1
    19    30    33    1
    20    30    38    1
    21    31    34    1
    22    31    39    1
    23    32    35    1
    24    32    40    1
    25    41    43   ar
    26    15    19    2
    27    42    43   ar
    28    16    22    2
    29    17    12    1
    30    17    19   ar
    31    17    20   ar
    32    18    19   ar
    33    18    22   ar
    34    18    23    1
    35     9    10    1
    36     9    11    1
    37    10    12    1
    38    11     5    1
    39    33    34    1
    40    33    35    1
    41    34    36    1
    42    35    37    1
    43    37    43    1
    44    20    21   ar
    45    21    22   ar
@<TRIPOS>MOLECULE
UDP-glaA
 43 45 0 0 0
SMALL
GASTEIGER

@<TRIPOS>ATOM
      1 P          23.4690   72.0251   -3.3294 P.3     1  UNL1        0.2189
      2 O          24.1796   72.9138   -4.4794 O.3     1  UNL1       -0.4371
      3 O          24.2064   70.7744   -2.9498 O.2     1  UNL1       -0.5170
      4 O          21.9616   71.8138   -3.8760 O.3     1  UNL1       -0.3112
      5 C          21.5042   72.6354   -4.9366 C.3     1  UNL1        0.1811
      6 O          20.6743   70.5980   -5.9032 O.3     1  UNL1       -0.3308
      7 O          21.0669   71.9207   -8.5654 O.3     1  UNL1       -0.3794
      8 O          18.3832   72.1831   -8.1601 O.3     1  UNL1       -0.3779
      9 C          20.6461   72.4915   -7.3266 C.3     1  UNL1        0.1713
     10 C          19.2171   72.0933   -7.0234 C.3     1  UNL1        0.1895
     11 C          21.4137   71.8015   -6.2066 C.3     1  UNL1        0.1764
     12 C          19.3845   70.6651   -6.5333 C.3     1  UNL1        0.2383
     13 H          21.9975   72.1698   -8.6980 H       1  UNL1        0.2105
     14 H          18.4163   73.1027   -8.4755 H       1  UNL1        0.2106
     15 O          16.7668   69.8512   -7.2120 O.2     1  UNL1       -0.2464
     16 O          15.6093   69.2554   -2.7912 O.2     1  UNL1       -0.2670
     17 N          18.3789   70.2912   -5.5802 N.ar    1  UNL1       -0.2551
     18 N          16.1920   69.5556   -5.0102 N.ar    1  UNL1       -0.2743
     19 C          17.0949   69.8986   -6.0251 C.ar    1  UNL1        0.3323
     20 C          18.6692   70.3159   -4.2206 C.ar    1  UNL1        0.0869
     21 C          17.7975   69.9855   -3.2652 C.ar    1  UNL1        0.0795
     22 C          16.4343   69.5650   -3.6453 C.ar    1  UNL1        0.2626
     23 H          15.2624   69.2707   -5.3067 H       1  UNL1        0.1734
     24 O          23.2727   73.0837   -2.1228 O.3     1  UNL1       -0.2703
     25 P          23.2567   72.8737   -0.5202 P.3     1  UNL1        0.2208
     26 O          21.6797   72.7752   -0.1746 O.3     1  UNL1       -0.4371
     27 O          23.9945   73.9331    0.2472 O.2     1  UNL1       -0.5170
     28 O          23.8177   71.3771   -0.2982 O.3     1  UNL1       -0.2858
     29 O          24.7606   71.5132    1.8678 O.3     1  UNL1       -0.3226
     30 O          20.7403   72.2558    2.6197 O.3     1  UNL1       -0.3794
     31 O          21.5354   70.1973    0.7127 O.3     1  UNL1       -0.3775
     32 O          23.1000   72.3555    4.0522 O.3     1  UNL1       -0.3792
     33 C          21.9786   72.2626    1.9147 C.3     1  UNL1        0.1718
     34 C          22.4332   70.8293    1.6191 C.3     1  UNL1        0.1968
     35 C          23.0294   72.9803    2.7663 C.3     1  UNL1        0.1723
     36 C          23.8430   70.8202    1.0153 C.3     1  UNL1        0.2706
     37 C          24.3958   72.8741    2.0927 C.3     1  UNL1        0.1830
     38 H          20.4930   73.1812    2.7871 H       1  UNL1        0.2105
     39 H          21.8682   69.2989    0.5487 H       1  UNL1        0.2106
     40 H          23.5540   71.5012    3.9560 H       1  UNL1        0.2106
     41 O          25.0152   74.5147    3.6510 O.co2   1  UNL1       -0.5466
     42 O          26.6187   73.0207    3.0236 O.co2   1  UNL1       -0.5466
     43 C          25.4760   73.4491    2.9525 C.2     1  UNL1        0.0799
@<TRIPOS>UNITY_ATOM_ATTR
41 1
charge -1
@<TRIPOS>BOND
     1     1     4    1
     2     1    24    1
     3     1     2    1
     4     1     3    2
     5    25    28    1
     6    25    24    1
     7    25    26    1
     8    25    27    2
     9     6    11    1
    10     6    12    1
    11    29    36    1
    12    29    37    1
    13     7     9    1
    14     7    13    1
    15     8    10    1
    16     8    14    1
    17     4     5    1
    18    28    36    1
    19    30    33    1
    20    30    38    1
    21    31    34    1
    22    31    39    1
    23    32    35    1
    24    32    40    1
    25    41    43   ar
    26    15    19    2
    27    42    43   ar
    28    16    22    2
    29    17    12    1
    30    17    19   ar
    31    17    20   ar
    32    18    19   ar
    33    18    22   ar
    34    18    23    1
    35     9    10    1
    36     9    11    1
    37    10    12    1
    38    11     5    1
    39    33    34    1
    40    33    35    1
    41    34    36    1
    42    35    37    1
    43    37    43    1
    44    20    21   ar
    45    21    22   ar
@<TRIPOS>MOLECULE
UDP-glaA
 43 45 0 0 0
SMALL
GASTEIGER

@<TRIPOS>ATOM
      1 P          20.5362   71.0801   -2.2621 P.3     1  UNL1        0.2189
      2 O          21.6786   70.2777   -3.0797 O.3     1  UNL1       -0.4371
      3 O          20.2788   70.5743   -0.8728 O.2     1  UNL1       -0.5170
      4 O          19.2637   71.0713   -3.2603 O.3     1  UNL1       -0.3112
      5 C          18.7360   72.3126   -3.6961 C.3     1  UNL1        0.1811
      6 O          16.9637   72.3710   -5.3178 O.3     1  UNL1       -0.3308
      7 O          15.3209   70.8806   -3.3000 O.3     1  UNL1       -0.3794
      8 O          16.0917   68.9062   -5.0157 O.3     1  UNL1       -0.3779
      9 C          16.7150   70.7722   -3.5873 C.3     1  UNL1        0.1713
     10 C          16.9262   70.0397   -4.8955 C.3     1  UNL1        0.1895
     11 C          17.2369   72.1652   -3.9142 C.3     1  UNL1        0.1764
     12 C          16.5997   71.1162   -5.9165 C.3     1  UNL1        0.2383
     13 H          15.2335   71.3894   -2.4760 H       1  UNL1        0.2105
     14 H          16.2867   68.3183   -4.2658 H       1  UNL1        0.2106
     15 O          15.4201   70.5538   -8.4200 O.2     1  UNL1       -0.2464
     16 O          19.5108   70.5052  -10.5420 O.2     1  UNL1       -0.2670
     17 N          17.3324   70.9522   -7.1394 N.ar    1  UNL1       -0.2551
     18 N          17.4579   70.5295   -9.4749 N.ar    1  UNL1       -0.2743
     19 C          16.6445   70.6707   -8.3429 C.ar    1  UNL1        0.3323
     20 C          18.7179   71.0702   -7.1386 C.ar    1  UNL1        0.0869
     21 C          19.4793   70.9333   -8.2264 C.ar    1  UNL1        0.0795
     22 C          18.8391   70.6376   -9.5235 C.ar    1  UNL1        0.2626
     23 H          16.9849   70.3262  -10.3513 H       1  UNL1        0.1734
     24 O          21.0459   72.6130   -2.3372 O.3     1  UNL1       -0.2703
     25 P          22.3168   73.3423   -1.6549 P.3     1  UNL1        0.2208
     26 O          21.9471   74.9130   -1.7661 O.3     1  UNL1       -0.4371
     27 O          23.6392   72.9720   -2.2631 O.2     1  UNL1       -0.5170
     28 O          22.1877   73.0027   -0.0826 O.3     1  UNL1       -0.2858
     29 O          24.2497   73.5681    0.9312 O.3     1  UNL1       -0.3226
     30 O          22.0419   72.1747    4.1659 O.3     1  UNL1       -0.3794
     31 O          21.9059   70.8212    1.5861 O.3     1  UNL1       -0.3775
     32 O          24.4726   73.4315    3.7896 O.3     1  UNL1       -0.3792
     33 C          22.3056   72.8132    2.9197 C.3     1  UNL1        0.1718
     34 C          22.8781   71.8080    1.9147 C.3     1  UNL1        0.1968
     35 C          23.3036   73.9518    3.1481 C.3     1  UNL1        0.1723
     36 C          23.3246   72.5180    0.6306 C.3     1  UNL1        0.2706
     37 C          23.7079   74.5569    1.8055 C.3     1  UNL1        0.1830
     38 H          21.6842   72.8473    4.7703 H       1  UNL1        0.2105
     39 H          22.3093   70.2149    0.9422 H       1  UNL1        0.2106
     40 H          24.9832   72.9236    3.1365 H       1  UNL1        0.2106
     41 O          24.6154   76.2673    3.1302 O.co2   1  UNL1       -0.5466
     42 O          25.6847   75.7911    1.1740 O.co2   1  UNL1       -0.5466
     43 C          24.7797   75.5870    1.9701 C.2     1  UNL1        0.0799
@<TRIPOS>UNITY_ATOM_ATTR
41 1
charge -1
@<TRIPOS>BOND
     1     1     4    1
     2     1    24    1
     3     1     2    1
     4     1     3    2
     5    25    28    1
     6    25    24    1
     7    25    26    1
     8    25    27    2
     9     6    11    1
    10     6    12    1
    11    29    36    1
    12    29    37    1
    13     7     9    1
    14     7    13    1
    15     8    10    1
    16     8    14    1
    17     4     5    1
    18    28    36    1
    19    30    33    1
    20    30    38    1
    21    31    34    1
    22    31    39    1
    23    32    35    1
    24    32    40    1
    25    41    43   ar
    26    15    19    2
    27    42    43   ar
    28    16    22    2
    29    17    12    1
    30    17    19   ar
    31    17    20   ar
    32    18    19   ar
    33    18    22   ar
    34    18    23    1
    35     9    10    1
    36     9    11    1
    37    10    12    1
    38    11     5    1
    39    33    34    1
    40    33    35    1
    41    34    36    1
    42    35    37    1
    43    37    43    1
    44    20    21   ar
    45    21    22   ar
@<TRIPOS>MOLECULE
UDP-glaA
 43 45 0 0 0
SMALL
GASTEIGER

@<TRIPOS>ATOM
      1 P          22.2959   72.9868   -6.4599 P.3     1  UNL1        0.2189
      2 O          21.3622   74.0457   -5.6699 O.3     1  UNL1       -0.4371
      3 O          23.0932   73.5669   -7.5912 O.2     1  UNL1       -0.5170
      4 O          21.2808   71.7916   -6.8557 O.3     1  UNL1       -0.3112
      5 C          20.0511   72.1250   -7.4768 C.3     1  UNL1        0.1811
      6 O          18.9096   70.0475   -7.0830 O.3     1  UNL1       -0.3308
      7 O          18.2203   70.0886  -10.0009 O.3     1  UNL1       -0.3794
      8 O          15.9129   70.9517   -8.8317 O.3     1  UNL1       -0.3779
      9 C          18.3209   71.1757   -9.0813 C.3     1  UNL1        0.1713
     10 C          17.1273   71.1877   -8.1497 C.3     1  UNL1        0.1895
     11 C          19.4683   70.8774   -8.1252 C.3     1  UNL1        0.1764
     12 C          17.4758   70.0751   -7.1757 C.3     1  UNL1        0.2383
     13 H          19.0230   70.0979  -10.5496 H       1  UNL1        0.2105
     14 H          15.8182   71.6438   -9.5087 H       1  UNL1        0.2106
     15 O          16.4170   68.0467   -5.5204 O.2     1  UNL1       -0.2464
     16 O          15.3962   71.0523   -2.1793 O.2     1  UNL1       -0.2670
     17 N          16.9274   70.2992   -5.8686 N.ar    1  UNL1       -0.2551
     18 N          15.9089   69.5448   -3.8580 N.ar    1  UNL1       -0.2743
     19 C          16.4204   69.2119   -5.1192 C.ar    1  UNL1        0.3323
     20 C          16.8955   71.5854   -5.3414 C.ar    1  UNL1        0.0869
     21 C          16.4049   71.8865   -4.1371 C.ar    1  UNL1        0.0795
     22 C          15.8552   70.8087   -3.2911 C.ar    1  UNL1        0.2626
     23 H          15.5384   68.7790   -3.3018 H       1  UNL1        0.1734
     24 O          23.1831   72.3327   -5.2766 O.3     1  UNL1       -0.2703
     25 P          22.7885   71.9029   -3.7693 P.3     1  UNL1        0.2208
     26 O          24.0341   70.9798   -3.3084 O.3     1  UNL1       -0.4371
     27 O          21.4468   71.2386   -3.6495 O.2     1  UNL1       -0.5170
     28 O          22.9416   73.2568   -2.9046 O.3     1  UNL1       -0.2858
     29 O          21.2731   72.6203   -1.3521 O.3     1  UNL1       -0.3226
     30 O          23.5960   75.2387    0.8901 O.3     1  UNL1       -0.3794
     31 O          22.9720   75.8272   -1.8974 O.3     1  UNL1       -0.3775
     32 O          21.5062   73.4976    1.3709 O.3     1  UNL1       -0.3792
     33 C          23.2867   74.2432   -0.0812 C.3     1  UNL1        0.1718
     34 C          22.3316   74.8068   -1.1387 C.3     1  UNL1        0.1968
     35 C          22.6410   73.0471    0.6237 C.3     1  UNL1        0.1723
     36 C          21.8581   73.6995   -2.0884 C.3     1  UNL1        0.2706
     37 C          22.1731   72.0304   -0.4153 C.3     1  UNL1        0.1830
     38 H          24.1994   74.8381    1.5389 H       1  UNL1        0.2105
     39 H          22.3339   76.1459   -2.5578 H       1  UNL1        0.2106
     40 H          20.7876   73.7010    0.7486 H       1  UNL1        0.2106
     41 O          20.3542   70.5538   -0.5383 O.co2   1  UNL1       -0.5466
     42 O          21.7204   70.3690    1.2773 O.co2   1  UNL1       -0.5466
     43 C          21.4202   70.9053    0.2205 C.2     1  UNL1        0.0799
@<TRIPOS>UNITY_ATOM_ATTR
41 1
charge -1
@<TRIPOS>BOND
     1     1     4    1
     2     1    24    1
     3     1     2    1
     4     1     3    2
     5    25    28    1
     6    25    24    1
     7    25    26    1
     8    25    27    2
     9     6    11    1
    10     6    12    1
    11    29    36    1
    12    29    37    1
    13     7     9    1
    14     7    13    1
    15     8    10    1
    16     8    14    1
    17     4     5    1
    18    28    36    1
    19    30    33    1
    20    30    38    1
    21    31    34    1
    22    31    39    1
    23    32    35    1
    24    32    40    1
    25    41    43   ar
    26    15    19    2
    27    42    43   ar
    28    16    22    2
    29    17    12    1
    30    17    19   ar
    31    17    20   ar
    32    18    19   ar
    33    18    22   ar
    34    18    23    1
    35     9    10    1
    36     9    11    1
    37    10    12    1
    38    11     5    1
    39    33    34    1
    40    33    35    1
    41    34    36    1
    42    35    37    1
    43    37    43    1
    44    20    21   ar
    45    21    22   ar
@<TRIPOS>MOLECULE
UDP-glaA
 43 45 0 0 0
SMALL
GASTEIGER

@<TRIPOS>ATOM
      1 P          21.9315   72.4715   -5.7404 P.3     1  UNL1        0.2189
      2 O          21.3070   73.9174   -5.3708 O.3     1  UNL1       -0.4371
      3 O          23.1420   72.5126   -6.6265 O.2     1  UNL1       -0.5170
      4 O          20.6699   71.6367   -6.3122 O.3     1  UNL1       -0.3112
      5 C          20.1269   72.0054   -7.5685 C.3     1  UNL1        0.1811
      6 O          18.9245   69.9661   -7.1562 O.3     1  UNL1       -0.3308
      7 O          18.1554   70.0534  -10.0532 O.3     1  UNL1       -0.3794
      8 O          15.9136   70.9879   -8.8135 O.3     1  UNL1       -0.3779
      9 C          18.3200   71.1293   -9.1296 C.3     1  UNL1        0.1713
     10 C          17.1542   71.1761   -8.1646 C.3     1  UNL1        0.1895
     11 C          19.4827   70.7838   -8.2084 C.3     1  UNL1        0.1764
     12 C          17.4905   70.0447   -7.2081 C.3     1  UNL1        0.2383
     13 H          18.9423   70.0387  -10.6243 H       1  UNL1        0.2105
     14 H          15.8243   71.6879   -9.4829 H       1  UNL1        0.2106
     15 O          16.3072   68.0644   -5.5790 O.2     1  UNL1       -0.2464
     16 O          15.5930   71.0552   -2.1464 O.2     1  UNL1       -0.2670
     17 N          16.9873   70.2779   -5.8846 N.ar    1  UNL1       -0.2551
     18 N          15.9519   69.5551   -3.8710 N.ar    1  UNL1       -0.2743
     19 C          16.4107   69.2151   -5.1505 C.ar    1  UNL1        0.3323
     20 C          17.0675   71.5489   -5.3265 C.ar    1  UNL1        0.0869
     21 C          16.6260   71.8570   -4.1050 C.ar    1  UNL1        0.0795
     22 C          16.0094   70.8046   -3.2732 C.ar    1  UNL1        0.2626
     23 H          15.5330   68.8069   -3.3253 H       1  UNL1        0.1734
     24 O          22.1815   71.8031   -4.2892 O.3     1  UNL1       -0.2703
     25 P          23.4351   71.9100   -3.2745 P.3     1  UNL1        0.2208
     26 O          24.2283   73.2176   -3.8009 O.3     1  UNL1       -0.4371
     27 O          24.2730   70.6659   -3.1974 O.2     1  UNL1       -0.5170
     28 O          22.7858   72.3646   -1.8689 O.3     1  UNL1       -0.2858
     29 O          23.1339   70.8948   -0.0473 O.3     1  UNL1       -0.3226
     30 O          20.2283   73.4635    1.4490 O.3     1  UNL1       -0.3794
     31 O          20.0873   72.5097   -1.3035 O.3     1  UNL1       -0.3775
     32 O          21.8323   71.4498    2.4500 O.3     1  UNL1       -0.3792
     33 C          21.3622   73.0425    0.6958 C.3     1  UNL1        0.1718
     34 C          20.9604   71.9666   -0.3188 C.3     1  UNL1        0.1968
     35 C          22.4172   72.4881    1.6571 C.3     1  UNL1        0.1723
     36 C          22.1983   71.3854   -1.0132 C.3     1  UNL1        0.2706
     37 C          23.5802   71.9015    0.8599 C.3     1  UNL1        0.1830
     38 H          20.5292   74.1409    2.0783 H       1  UNL1        0.2105
     39 H          19.8685   71.7967   -1.9269 H       1  UNL1        0.2106
     40 H          21.7196   70.6615    1.8923 H       1  UNL1        0.2106
     41 O          25.4124   72.1437    2.3050 O.co2   1  UNL1       -0.5466
     42 O          24.6284   70.0298    1.9679 O.co2   1  UNL1       -0.5466
     43 C          24.5745   71.2323    1.7546 C.2     1  UNL1        0.0799
@<TRIPOS>UNITY_ATOM_ATTR
41 1
charge -1
@<TRIPOS>BOND
     1     1     4    1
     2     1    24    1
     3     1     2    1
     4     1     3    2
     5    25    28    1
     6    25    24    1
     7    25    26    1
     8    25    27    2
     9     6    11    1
    10     6    12    1
    11    29    36    1
    12    29    37    1
    13     7     9    1
    14     7    13    1
    15     8    10    1
    16     8    14    1
    17     4     5    1
    18    28    36    1
    19    30    33    1
    20    30    38    1
    21    31    34    1
    22    31    39    1
    23    32    35    1
    24    32    40    1
    25    41    43   ar
    26    15    19    2
    27    42    43   ar
    28    16    22    2
    29    17    12    1
    30    17    19   ar
    31    17    20   ar
    32    18    19   ar
    33    18    22   ar
    34    18    23    1
    35     9    10    1
    36     9    11    1
    37    10    12    1
    38    11     5    1
    39    33    34    1
    40    33    35    1
    41    34    36    1
    42    35    37    1
    43    37    43    1
    44    20    21   ar
    45    21    22   ar
@<TRIPOS>MOLECULE
UDP-glaA
 43 45 0 0 0
SMALL
GASTEIGER

@<TRIPOS>ATOM
      1 P          21.8384   72.4025   -5.6064 P.3     1  UNL1        0.2189
      2 O          21.1454   73.8459   -5.3749 O.3     1  UNL1       -0.4371
      3 O          23.1410   72.4378   -6.3508 O.2     1  UNL1       -0.5170
      4 O          20.6682   71.5117   -6.2793 O.3     1  UNL1       -0.3112
      5 C          20.1597   71.9044   -7.5428 C.3     1  UNL1        0.1811
      6 O          18.8730   69.9157   -7.1382 O.3     1  UNL1       -0.3308
      7 O          18.0960   70.0549  -10.0310 O.3     1  UNL1       -0.3794
      8 O          15.9015   71.0761   -8.7751 O.3     1  UNL1       -0.3779
      9 C          18.3104   71.1166   -9.1013 C.3     1  UNL1        0.1713
     10 C          17.1518   71.2068   -8.1307 C.3     1  UNL1        0.1895
     11 C          19.4611   70.7157   -8.1876 C.3     1  UNL1        0.1764
     12 C          17.4434   70.0558   -7.1830 C.3     1  UNL1        0.2383
     13 H          18.8791   70.0104  -10.6057 H       1  UNL1        0.2105
     14 H          15.8394   71.7837   -9.4396 H       1  UNL1        0.2106
     15 O          16.2627   68.0954   -5.5283 O.2     1  UNL1       -0.2464
     16 O          15.6083   71.1141   -2.1081 O.2     1  UNL1       -0.2670
     17 N          16.9563   70.3015   -5.8557 N.ar    1  UNL1       -0.2551
     18 N          15.9371   69.6000   -3.8264 N.ar    1  UNL1       -0.2743
     19 C          16.3795   69.2481   -5.1085 C.ar    1  UNL1        0.3323
     20 C          17.0522   71.5755   -5.3070 C.ar    1  UNL1        0.0869
     21 C          16.6262   71.8950   -4.0830 C.ar    1  UNL1        0.0795
     22 C          16.0106   70.8529   -3.2376 C.ar    1  UNL1        0.2626
     23 H          15.5185   68.8586   -3.2713 H       1  UNL1        0.1734
     24 O          21.9352   71.8025   -4.1078 O.3     1  UNL1       -0.2703
     25 P          23.1108   71.8954   -3.0024 P.3     1  UNL1        0.2208
     26 O          23.6720   73.4015   -3.1833 O.3     1  UNL1       -0.4371
     27 O          24.1572   70.8250   -3.1246 O.2     1  UNL1       -0.5170
     28 O          22.3390   71.9145   -1.5853 O.3     1  UNL1       -0.2858
     29 O          24.0029   72.4105    0.0225 O.3     1  UNL1       -0.3226
     30 O          20.5586   72.2777    2.3459 O.3     1  UNL1       -0.3794
     31 O          20.9908   70.3238    0.2243 O.3     1  UNL1       -0.3775
     32 O          23.1976   73.0067    2.7122 O.3     1  UNL1       -0.3792
     33 C          21.3765   72.5145    1.2035 C.3     1  UNL1        0.1718
     34 C          21.9988   71.2036    0.7108 C.3     1  UNL1        0.1968
     35 C          22.4785   73.5083    1.5808 C.3     1  UNL1        0.1723
     36 C          23.0129   71.4707   -0.4085 C.3     1  UNL1        0.2706
     37 C          23.4491   73.6663    0.4123 C.3     1  UNL1        0.1830
     38 H          20.1885   73.1328    2.6241 H       1  UNL1        0.2105
     39 H          21.4319   69.5144   -0.0843 H       1  UNL1        0.2106
     40 H          23.7627   72.2723    2.4182 H       1  UNL1        0.2106
     41 O          24.9066   75.3922   -0.2208 O.co2   1  UNL1       -0.5466
     42 O          25.2218   74.4710    1.8405 O.co2   1  UNL1       -0.5466
     43 C          24.6140   74.5287    0.7814 C.2     1  UNL1        0.0799
@<TRIPOS>UNITY_ATOM_ATTR
41 1
charge -1
@<TRIPOS>BOND
     1     1     4    1
     2     1    24    1
     3     1     2    1
     4     1     3    2
     5    25    28    1
     6    25    24    1
     7    25    26    1
     8    25    27    2
     9     6    11    1
    10     6    12    1
    11    29    36    1
    12    29    37    1
    13     7     9    1
    14     7    13    1
    15     8    10    1
    16     8    14    1
    17     4     5    1
    18    28    36    1
    19    30    33    1
    20    30    38    1
    21    31    34    1
    22    31    39    1
    23    32    35    1
    24    32    40    1
    25    41    43   ar
    26    15    19    2
    27    42    43   ar
    28    16    22    2
    29    17    12    1
    30    17    19   ar
    31    17    20   ar
    32    18    19   ar
    33    18    22   ar
    34    18    23    1
    35     9    10    1
    36     9    11    1
    37    10    12    1
    38    11     5    1
    39    33    34    1
    40    33    35    1
    41    34    36    1
    42    35    37    1
    43    37    43    1
    44    20    21   ar
    45    21    22   ar
@<TRIPOS>MOLECULE
UDP-glaA
 43 45 0 0 0
SMALL
GASTEIGER

@<TRIPOS>ATOM
      1 P          22.5366   72.2076   -1.8372 P.3     1  UNL1        0.2189
      2 O          23.2330   73.5886   -2.3117 O.3     1  UNL1       -0.4371
      3 O          23.1688   70.9602   -2.3817 O.2     1  UNL1       -0.5170
      4 O          20.9732   72.4168   -2.1943 O.3     1  UNL1       -0.3112
      5 C          20.6218   72.7566   -3.5248 C.3     1  UNL1        0.1811
      6 O          20.9847   71.0152   -5.1404 O.3     1  UNL1       -0.3308
      7 O          23.3434   72.6202   -6.0634 O.3     1  UNL1       -0.3794
      8 O          21.4502   73.2141   -7.9340 O.3     1  UNL1       -0.3779
      9 C          22.0746   73.0704   -5.5887 C.3     1  UNL1        0.1713
     10 C          21.0104   72.8476   -6.6425 C.3     1  UNL1        0.1895
     11 C          21.6268   72.1278   -4.4794 C.3     1  UNL1        0.1764
     12 C          20.7482   71.3565   -6.5162 C.3     1  UNL1        0.2383
     13 H          23.9839   72.7464   -5.3427 H       1  UNL1        0.2105
     14 H          21.7006   74.1535   -7.9023 H       1  UNL1        0.2106
     15 O          19.8266   70.9529   -9.1550 O.2     1  UNL1       -0.2464
     16 O          15.5507   70.0168   -7.7133 O.2     1  UNL1       -0.2670
     17 N          19.3996   71.0061   -6.8593 N.ar    1  UNL1       -0.2551
     18 N          17.6978   70.4876   -8.4354 N.ar    1  UNL1       -0.2743
     19 C          19.0393   70.8271   -8.2154 C.ar    1  UNL1        0.3323
     20 C          18.4494   70.8434   -5.8573 C.ar    1  UNL1        0.0869
     21 C          17.1744   70.5190   -6.0832 C.ar    1  UNL1        0.0795
     22 C          16.7163   70.3151   -7.4718 C.ar    1  UNL1        0.2626
     23 H          17.4160   70.3545   -9.4029 H       1  UNL1        0.1734
     24 O          22.5597   72.3257   -0.2245 O.3     1  UNL1       -0.2703
     25 P          22.7521   71.1991    0.9184 P.3     1  UNL1        0.2208
     26 O          24.2320   70.6180    0.6213 O.3     1  UNL1       -0.4371
     27 O          21.6707   70.1571    0.9445 O.2     1  UNL1       -0.5170
     28 O          22.9084   72.0321    2.2916 O.3     1  UNL1       -0.2858
     29 O          22.0128   73.8549    3.5060 O.3     1  UNL1       -0.3226
     30 O          26.0197   74.9114    3.1781 O.3     1  UNL1       -0.3794
     31 O          24.6131   73.7161    0.9201 O.3     1  UNL1       -0.3775
     32 O          23.8026   75.8505    4.5319 O.3     1  UNL1       -0.3792
     33 C          24.8799   74.0667    3.3102 C.3     1  UNL1        0.1718
     34 C          23.9655   74.2080    2.0886 C.3     1  UNL1        0.1968
     35 C          24.1199   74.4556    4.5813 C.3     1  UNL1        0.1723
     36 C          22.6565   73.4366    2.2978 C.3     1  UNL1        0.2706
     37 C          22.8199   73.6587    4.6660 C.3     1  UNL1        0.1830
     38 H          26.5674   74.7914    3.9726 H       1  UNL1        0.2105
     39 H          23.9945   73.8172    0.1772 H       1  UNL1        0.2106
     40 H          23.0838   75.9812    3.8906 H       1  UNL1        0.2106
     41 O          20.9537   74.8737    5.4041 O.co2   1  UNL1       -0.5466
     42 O          22.1895   73.8025    6.9923 O.co2   1  UNL1       -0.5466
     43 C          21.9827   74.0990    5.8245 C.2     1  UNL1        0.0799
@<TRIPOS>UNITY_ATOM_ATTR
41 1
charge -1
@<TRIPOS>BOND
     1     1     4    1
     2     1    24    1
     3     1     2    1
     4     1     3    2
     5    25    28    1
     6    25    24    1
     7    25    26    1
     8    25    27    2
     9     6    11    1
    10     6    12    1
    11    29    36    1
    12    29    37    1
    13     7     9    1
    14     7    13    1
    15     8    10    1
    16     8    14    1
    17     4     5    1
    18    28    36    1
    19    30    33    1
    20    30    38    1
    21    31    34    1
    22    31    39    1
    23    32    35    1
    24    32    40    1
    25    41    43   ar
    26    15    19    2
    27    42    43   ar
    28    16    22    2
    29    17    12    1
    30    17    19   ar
    31    17    20   ar
    32    18    19   ar
    33    18    22   ar
    34    18    23    1
    35     9    10    1
    36     9    11    1
    37    10    12    1
    38    11     5    1
    39    33    34    1
    40    33    35    1
    41    34    36    1
    42    35    37    1
    43    37    43    1
    44    20    21   ar
    45    21    22   ar
@<TRIPOS>MOLECULE
UDP-glaA
 43 45 0 0 0
SMALL
GASTEIGER

@<TRIPOS>ATOM
      1 P          23.4127   72.1507   -3.5478 P.3     1  UNL1        0.2189
      2 O          24.0946   70.7401   -3.1444 O.3     1  UNL1       -0.4371
      3 O          24.3339   73.1323   -4.2110 O.2     1  UNL1       -0.5170
      4 O          22.7183   72.6542   -2.1767 O.3     1  UNL1       -0.3112
      5 C          23.5092   72.7227   -1.0023 C.3     1  UNL1        0.1811
      6 O          24.4804   71.2319    0.6127 O.3     1  UNL1       -0.3308
      7 O          21.6935   70.2336    1.0900 O.3     1  UNL1       -0.3794
      8 O          22.0952   71.9108    3.2022 O.3     1  UNL1       -0.3779
      9 C          22.1411   71.5571    0.7973 C.3     1  UNL1        0.1713
     10 C          22.8110   72.1654    2.0113 C.3     1  UNL1        0.1895
     11 C          23.2984   71.4546   -0.1874 C.3     1  UNL1        0.1764
     12 C          24.1719   71.4906    1.9923 C.3     1  UNL1        0.2383
     13 H          21.3076   69.8711    0.2744 H       1  UNL1        0.2105
     14 H          21.2018   72.2791    3.0912 H       1  UNL1        0.2106
     15 O          26.8399   70.6595    2.4007 O.2     1  UNL1       -0.2464
     16 O          28.0372   74.7480    4.1583 O.2     1  UNL1       -0.2670
     17 N          25.2016   72.3172    2.5541 N.ar    1  UNL1       -0.2551
     18 N          27.4342   72.6958    3.2761 N.ar    1  UNL1       -0.2743
     19 C          26.5093   71.8035    2.7179 C.ar    1  UNL1        0.3323
     20 C          24.9113   73.6221    2.9368 C.ar    1  UNL1        0.0869
     21 C          25.8043   74.4606    3.4671 C.ar    1  UNL1        0.0795
     22 C          27.1925   74.0020    3.6725 C.ar    1  UNL1        0.2626
     23 H          28.3806   72.3478    3.4037 H       1  UNL1        0.1734
     24 O          22.1491   71.6975   -4.4496 O.3     1  UNL1       -0.2703
     25 P          21.3164   72.4930   -5.5838 P.3     1  UNL1        0.2208
     26 O          21.6994   71.7072   -6.9447 O.3     1  UNL1       -0.4371
     27 O          21.5861   73.9699   -5.6238 O.2     1  UNL1       -0.5170
     28 O          19.7749   72.1040   -5.3076 O.3     1  UNL1       -0.2858
     29 O          18.9800   69.8940   -5.0184 O.3     1  UNL1       -0.3226
     30 O          15.5672   71.8852   -6.3095 O.3     1  UNL1       -0.3794
     31 O          18.1597   72.4510   -7.5197 O.3     1  UNL1       -0.3775
     32 O          16.1708   69.3819   -5.3100 O.3     1  UNL1       -0.3792
     33 C          16.8128   71.6861   -5.6469 C.3     1  UNL1        0.1718
     34 C          17.9090   71.3432   -6.6614 C.3     1  UNL1        0.1968
     35 C          16.6594   70.5464   -4.6361 C.3     1  UNL1        0.1723
     36 C          19.2103   70.9595   -5.9461 C.3     1  UNL1        0.2706
     37 C          18.0176   70.2226   -4.0176 C.3     1  UNL1        0.1830
     38 H          14.9042   72.0970   -5.6304 H       1  UNL1        0.2105
     39 H          18.8648   72.1908   -8.1362 H       1  UNL1        0.2106
     40 H          16.8938   69.0058   -5.8401 H       1  UNL1        0.2106
     41 O          17.6852   69.4064   -1.8434 O.co2   1  UNL1       -0.5466
     42 O          18.0811   67.8696   -3.4800 O.co2   1  UNL1       -0.5466
     43 C          17.9395   69.0291   -3.1196 C.2     1  UNL1        0.0799
@<TRIPOS>UNITY_ATOM_ATTR
41 1
charge -1
@<TRIPOS>BOND
     1     1     4    1
     2     1    24    1
     3     1     2    1
     4     1     3    2
     5    25    28    1
     6    25    24    1
     7    25    26    1
     8    25    27    2
     9     6    11    1
    10     6    12    1
    11    29    36    1
    12    29    37    1
    13     7     9    1
    14     7    13    1
    15     8    10    1
    16     8    14    1
    17     4     5    1
    18    28    36    1
    19    30    33    1
    20    30    38    1
    21    31    34    1
    22    31    39    1
    23    32    35    1
    24    32    40    1
    25    41    43   ar
    26    15    19    2
    27    42    43   ar
    28    16    22    2
    29    17    12    1
    30    17    19   ar
    31    17    20   ar
    32    18    19   ar
    33    18    22   ar
    34    18    23    1
    35     9    10    1
    36     9    11    1
    37    10    12    1
    38    11     5    1
    39    33    34    1
    40    33    35    1
    41    34    36    1
    42    35    37    1
    43    37    43    1
    44    20    21   ar
    45    21    22   ar
@<TRIPOS>MOLECULE
UDP-glaA
 43 45 0 0 0
SMALL
GASTEIGER

@<TRIPOS>ATOM
      1 P          23.5631   72.3977   -3.3934 P.3     1  UNL1        0.2189
      2 O          24.1192   70.8937   -3.1786 O.3     1  UNL1       -0.4371
      3 O          24.6141   73.4227   -3.7048 O.2     1  UNL1       -0.5170
      4 O          22.6776   72.6786   -2.0696 O.3     1  UNL1       -0.3112
      5 C          23.3425   72.8045   -0.8240 C.3     1  UNL1        0.1811
      6 O          24.4124   71.2756    0.6900 O.3     1  UNL1       -0.3308
      7 O          21.6679   70.2086    1.2562 O.3     1  UNL1       -0.3794
      8 O          22.1371   71.8168    3.4078 O.3     1  UNL1       -0.3779
      9 C          22.0787   71.5499    0.9920 C.3     1  UNL1        0.1713
     10 C          22.7930   72.1272    2.1957 C.3     1  UNL1        0.1895
     11 C          23.1911   71.5043   -0.0472 C.3     1  UNL1        0.1764
     12 C          24.1631   71.4792    2.0906 C.3     1  UNL1        0.2383
     13 H          21.2513   69.8682    0.4462 H       1  UNL1        0.2105
     14 H          21.2334   72.1720    3.3508 H       1  UNL1        0.2106
     15 O          26.8516   70.6682    2.3897 O.2     1  UNL1       -0.2464
     16 O          28.0675   74.7305    4.1945 O.2     1  UNL1       -0.2670
     17 N          25.2031   72.3045    2.6351 N.ar    1  UNL1       -0.2551
     18 N          27.4552   72.6914    3.2887 N.ar    1  UNL1       -0.2743
     19 C          26.5207   71.8015    2.7429 C.ar    1  UNL1        0.3323
     20 C          24.9130   73.5977    3.0558 C.ar    1  UNL1        0.0869
     21 C          25.8152   74.4341    3.5737 C.ar    1  UNL1        0.0795
     22 C          27.2142   73.9862    3.7216 C.ar    1  UNL1        0.2626
     23 H          28.4089   72.3510    3.3764 H       1  UNL1        0.1734
     24 O          22.4440   72.2090   -4.5455 O.3     1  UNL1       -0.2703
     25 P          22.0327   73.1558   -5.7893 P.3     1  UNL1        0.2208
     26 O          23.0665   72.7118   -6.9513 O.3     1  UNL1       -0.4371
     27 O          22.0458   74.6246   -5.4760 O.2     1  UNL1       -0.5170
     28 O          20.6022   72.5910   -6.2776 O.3     1  UNL1       -0.2858
     29 O          19.4812   70.5614   -5.8047 O.3     1  UNL1       -0.3226
     30 O          18.3367   71.2936   -9.7332 O.3     1  UNL1       -0.3794
     31 O          21.0805   71.7823   -8.8738 O.3     1  UNL1       -0.3775
     32 O          17.6447   69.5079   -7.7426 O.3     1  UNL1       -0.3792
     33 C          18.7080   71.5788   -8.3874 C.3     1  UNL1        0.1718
     34 C          20.1231   71.0640   -8.1029 C.3     1  UNL1        0.1968
     35 C          17.7065   70.9065   -7.4443 C.3     1  UNL1        0.1723
     36 C          20.4659   71.2113   -6.6153 C.3     1  UNL1        0.2706
     37 C          18.1665   71.0806   -5.9985 C.3     1  UNL1        0.1830
     38 H          17.4357   71.6340   -9.8673 H       1  UNL1        0.2105
     39 H          21.9589   71.4291   -8.6537 H       1  UNL1        0.2106
     40 H          18.4560   69.0856   -7.4132 H       1  UNL1        0.2106
     41 O          16.9437   71.1083   -3.9966 O.co2   1  UNL1       -0.5466
     42 O          16.9221   69.1720   -5.1996 O.co2   1  UNL1       -0.5466
     43 C          17.2874   70.3290   -5.0502 C.2     1  UNL1        0.0799
@<TRIPOS>UNITY_ATOM_ATTR
41 1
charge -1
@<TRIPOS>BOND
     1     1     4    1
     2     1    24    1
     3     1     2    1
     4     1     3    2
     5    25    28    1
     6    25    24    1
     7    25    26    1
     8    25    27    2
     9     6    11    1
    10     6    12    1
    11    29    36    1
    12    29    37    1
    13     7     9    1
    14     7    13    1
    15     8    10    1
    16     8    14    1
    17     4     5    1
    18    28    36    1
    19    30    33    1
    20    30    38    1
    21    31    34    1
    22    31    39    1
    23    32    35    1
    24    32    40    1
    25    41    43   ar
    26    15    19    2
    27    42    43   ar
    28    16    22    2
    29    17    12    1
    30    17    19   ar
    31    17    20   ar
    32    18    19   ar
    33    18    22   ar
    34    18    23    1
    35     9    10    1
    36     9    11    1
    37    10    12    1
    38    11     5    1
    39    33    34    1
    40    33    35    1
    41    34    36    1
    42    35    37    1
    43    37    43    1
    44    20    21   ar
    45    21    22   ar
@<TRIPOS>MOLECULE
UDP-glaA
 43 45 0 0 0
SMALL
GASTEIGER

@<TRIPOS>ATOM
      1 P          21.8635   71.3934    0.0817 P.3     1  UNL1        0.2189
      2 O          20.9041   72.5100   -0.5892 O.3     1  UNL1       -0.4371
      3 O          21.1432   70.2653    0.7604 O.2     1  UNL1       -0.5170
      4 O          22.8653   72.2516    1.0174 O.3     1  UNL1       -0.3112
      5 C          22.3459   73.3669    1.7214 C.3     1  UNL1        0.1811
      6 O          22.3986   72.5418    3.9777 O.3     1  UNL1       -0.3308
      7 O          19.4864   73.2450    4.1045 O.3     1  UNL1       -0.3794
      8 O          20.6597   75.3284    5.4155 O.3     1  UNL1       -0.3779
      9 C          20.5507   73.9216    3.4356 C.3     1  UNL1        0.1713
     10 C          21.4210   74.6508    4.4373 C.3     1  UNL1        0.1895
     11 C          21.5065   72.8691    2.8895 C.3     1  UNL1        0.1764
     12 C          22.2470   73.5176    5.0218 C.3     1  UNL1        0.2383
     13 H          18.9805   72.7618    3.4292 H       1  UNL1        0.2105
     14 H          20.0810   75.9579    4.9517 H       1  UNL1        0.2106
     15 O          22.9899   73.9169    7.7170 O.2     1  UNL1       -0.2464
     16 O          27.2628   75.1824    6.5426 O.2     1  UNL1       -0.2670
     17 N          23.5469   73.9505    5.4489 N.ar    1  UNL1       -0.2551
     18 N          25.1170   74.5473    7.1304 N.ar    1  UNL1       -0.2743
     19 C          23.8172   74.1213    6.8268 C.ar    1  UNL1        0.3323
     20 C          24.5382   74.2013    4.5067 C.ar    1  UNL1        0.0869
     21 C          25.7728   74.6065    4.8122 C.ar    1  UNL1        0.0795
     22 C          26.1365   74.8099    6.2285 C.ar    1  UNL1        0.2626
     23 H          25.3338   74.6774    8.1148 H       1  UNL1        0.1734
     24 O          22.8116   70.9438   -1.1487 O.3     1  UNL1       -0.2703
     25 P          23.1448   71.6733   -2.5520 P.3     1  UNL1        0.2208
     26 O          24.4116   70.8384   -3.1127 O.3     1  UNL1       -0.4371
     27 O          23.3790   73.1524   -2.4369 O.2     1  UNL1       -0.5170
     28 O          21.9239   71.2654   -3.5250 O.3     1  UNL1       -0.2858
     29 O          21.7357   73.1363   -4.9616 O.3     1  UNL1       -0.3226
     30 O          19.0541   70.4563   -6.6661 O.3     1  UNL1       -0.3794
     31 O          19.2241   70.7414   -3.7685 O.3     1  UNL1       -0.3775
     32 O          20.1410   72.9055   -7.3369 O.3     1  UNL1       -0.3792
     33 C          20.2181   70.9085   -5.9800 C.3     1  UNL1        0.1718
     34 C          19.8284   71.6411   -4.6917 C.3     1  UNL1        0.1968
     35 C          21.0017   71.8483   -6.9004 C.3     1  UNL1        0.1723
     36 C          21.0594   72.2792   -4.0360 C.3     1  UNL1        0.2706
     37 C          22.1759   72.4549   -6.1352 C.3     1  UNL1        0.1830
     38 H          19.3477   70.0020   -7.4741 H       1  UNL1        0.2105
     39 H          19.0040   71.2465   -2.9678 H       1  UNL1        0.2106
     40 H          20.0019   73.5171   -6.5941 H       1  UNL1        0.2106
     41 O          23.2332   74.5482   -6.1970 O.co2   1  UNL1       -0.5466
     42 O          23.1462   73.3712   -8.1474 O.co2   1  UNL1       -0.5466
     43 C          22.8937   73.4786   -6.9561 C.2     1  UNL1        0.0799
@<TRIPOS>UNITY_ATOM_ATTR
41 1
charge -1
@<TRIPOS>BOND
     1     1     4    1
     2     1    24    1
     3     1     2    1
     4     1     3    2
     5    25    28    1
     6    25    24    1
     7    25    26    1
     8    25    27    2
     9     6    11    1
    10     6    12    1
    11    29    36    1
    12    29    37    1
    13     7     9    1
    14     7    13    1
    15     8    10    1
    16     8    14    1
    17     4     5    1
    18    28    36    1
    19    30    33    1
    20    30    38    1
    21    31    34    1
    22    31    39    1
    23    32    35    1
    24    32    40    1
    25    41    43   ar
    26    15    19    2
    27    42    43   ar
    28    16    22    2
    29    17    12    1
    30    17    19   ar
    31    17    20   ar
    32    18    19   ar
    33    18    22   ar
    34    18    23    1
    35     9    10    1
    36     9    11    1
    37    10    12    1
    38    11     5    1
    39    33    34    1
    40    33    35    1
    41    34    36    1
    42    35    37    1
    43    37    43    1
    44    20    21   ar
    45    21    22   ar
@<TRIPOS>MOLECULE
UDP-glaA
 43 45 0 0 0
SMALL
GASTEIGER

@<TRIPOS>ATOM
      1 P          20.5107   74.2689   -2.6233 P.3     1  UNL1        0.2189
      2 O          20.0384   75.7029   -2.0419 O.3     1  UNL1       -0.4371
      3 O          21.4024   74.3372   -3.8285 O.2     1  UNL1       -0.5170
      4 O          19.1282   73.4524   -2.8171 O.3     1  UNL1       -0.3112
      5 C          18.7869   72.9966   -4.1151 C.3     1  UNL1        0.1811
      6 O          16.9353   72.1902   -5.4173 O.3     1  UNL1       -0.3308
      7 O          16.1553   70.6142   -2.9884 O.3     1  UNL1       -0.3794
      8 O          17.3690   68.7380   -4.5513 O.3     1  UNL1       -0.3779
      9 C          17.4576   70.9215   -3.4859 C.3     1  UNL1        0.1713
     10 C          17.7627   70.0853   -4.7107 C.3     1  UNL1        0.1895
     11 C          17.4194   72.3303   -4.0634 C.3     1  UNL1        0.1764
     12 C          16.9678   70.8023   -5.7887 C.3     1  UNL1        0.2383
     13 H          15.9890   71.2000   -2.2303 H       1  UNL1        0.2105
     14 H          17.8404   68.3850   -3.7771 H       1  UNL1        0.2106
     15 O          15.5207   70.6222   -8.2071 O.2     1  UNL1       -0.2464
     16 O          19.3808   70.3329  -10.7080 O.2     1  UNL1       -0.2670
     17 N          17.5689   70.6798   -7.0860 N.ar    1  UNL1       -0.2551
     18 N          17.4438   70.4777   -9.4508 N.ar    1  UNL1       -0.2743
     19 C          16.7524   70.5955   -8.2379 C.ar    1  UNL1        0.3323
     20 C          18.9536   70.6440   -7.2078 C.ar    1  UNL1        0.0869
     21 C          19.5978   70.5319   -8.3715 C.ar    1  UNL1        0.0795
     22 C          18.8189   70.4375   -9.6220 C.ar    1  UNL1        0.2626
     23 H          16.8771   70.4150  -10.2922 H       1  UNL1        0.1734
     24 O          21.1757   73.5560   -1.3331 O.3     1  UNL1       -0.2703
     25 P          20.5126   72.6862   -0.1430 P.3     1  UNL1        0.2208
     26 O          20.1981   71.2667   -0.8518 O.3     1  UNL1       -0.4371
     27 O          19.3215   73.3339    0.5033 O.2     1  UNL1       -0.5170
     28 O          21.7329   72.3771    0.8665 O.3     1  UNL1       -0.2858
     29 O          23.3132   73.8398    1.8476 O.3     1  UNL1       -0.3226
     30 O          25.5286   70.3545    1.3747 O.3     1  UNL1       -0.3794
     31 O          23.6906   71.2362   -0.7110 O.3     1  UNL1       -0.3775
     32 O          25.8780   72.8005    2.6095 O.3     1  UNL1       -0.3792
     33 C          24.3906   71.1773    1.6156 C.3     1  UNL1        0.1718
     34 C          24.0901   72.0461    0.3896 C.3     1  UNL1        0.1968
     35 C          24.6700   72.0654    2.8312 C.3     1  UNL1        0.1723
     36 C          22.9771   73.0552    0.6985 C.3     1  UNL1        0.2706
     37 C          23.5210   73.0535    3.0198 C.3     1  UNL1        0.1830
     38 H          25.6829   69.8252    2.1758 H       1  UNL1        0.2105
     39 H          23.5025   71.8287   -1.4583 H       1  UNL1        0.2106
     40 H          25.6984   73.5010    1.9597 H       1  UNL1        0.2106
     41 O          24.4011   75.1425    3.6244 O.co2   1  UNL1       -0.5466
     42 O          23.5519   73.8497    5.2991 O.co2   1  UNL1       -0.5466
     43 C          23.8111   74.0270    4.1176 C.2     1  UNL1        0.0799
@<TRIPOS>UNITY_ATOM_ATTR
41 1
charge -1
@<TRIPOS>BOND
     1     1     4    1
     2     1    24    1
     3     1     2    1
     4     1     3    2
     5    25    28    1
     6    25    24    1
     7    25    26    1
     8    25    27    2
     9     6    11    1
    10     6    12    1
    11    29    36    1
    12    29    37    1
    13     7     9    1
    14     7    13    1
    15     8    10    1
    16     8    14    1
    17     4     5    1
    18    28    36    1
    19    30    33    1
    20    30    38    1
    21    31    34    1
    22    31    39    1
    23    32    35    1
    24    32    40    1
    25    41    43   ar
    26    15    19    2
    27    42    43   ar
    28    16    22    2
    29    17    12    1
    30    17    19   ar
    31    17    20   ar
    32    18    19   ar
    33    18    22   ar
    34    18    23    1
    35     9    10    1
    36     9    11    1
    37    10    12    1
    38    11     5    1
    39    33    34    1
    40    33    35    1
    41    34    36    1
    42    35    37    1
    43    37    43    1
    44    20    21   ar
    45    21    22   ar
