@<TRIPOS>MOLECULE
*****
 43 45 0 0 0
SMALL
GASTEIGER

@<TRIPOS>ATOM
      1 P          22.9858   71.6660   -2.7338 P.3     1  UNL1        0.2189
      2 O          23.8196   72.9693   -3.2068 O.co2   1  UNL1       -0.4371
      3 O          23.5031   70.3584   -3.2571 O.2     1  UNL1       -0.5170
      4 O          21.4558   72.0221   -3.1215 O.3     1  UNL1       -0.3112
      5 C          20.6083   70.9748   -3.5605 C.3     1  UNL1        0.1811
      6 O          18.7415   71.9870   -4.6850 O.3     1  UNL1       -0.3308
      7 O          17.0371   70.8087   -2.5176 O.3     1  UNL1       -0.3794
      8 O          16.6479   69.0766   -4.5876 O.3     1  UNL1       -0.3779
      9 C          18.1994   70.2694   -3.1449 C.3     1  UNL1        0.1713
     10 C          17.8676   69.7886   -4.5422 C.3     1  UNL1        0.1895
     11 C          19.1586   71.4198   -3.4238 C.3     1  UNL1        0.1764
     12 C          17.8124   71.0929   -5.3193 C.3     1  UNL1        0.2383
     13 H          16.4097   70.0925   -2.3293 H       1  UNL1        0.2105
     14 H          16.7337   68.2552   -4.0789 H       1  UNL1        0.2106
     15 O          16.0261   70.3864   -7.3900 O.2     1  UNL1       -0.2464
     16 O          19.3717   70.4843  -10.5584 O.2     1  UNL1       -0.2670
     17 N          18.1896   70.9273   -6.6947 N.ar    1  UNL1       -0.2551
     18 N          17.6933   70.4359   -8.9659 N.ar    1  UNL1       -0.2743
     19 C          17.2156   70.5701   -7.6561 C.ar    1  UNL1        0.3323
     20 C          19.5125   71.1189   -7.0783 C.ar    1  UNL1        0.0869
     21 C          19.9521   70.9857   -8.3314 C.ar    1  UNL1        0.0795
     22 C          18.9984   70.6145   -9.3967 C.ar    1  UNL1        0.2626
     23 H          17.0327   70.1872   -9.6527 H       1  UNL1        0.1734
     24 O          22.9919   71.7956   -1.1226 O.3     1  UNL1       -0.2703
     25 P          22.4636   70.7878    0.0255 P.3     1  UNL1        0.2208
     26 O          23.6582   69.7033    0.1456 O.co2   1  UNL1       -0.4371
     27 O          21.1131   70.1933   -0.2514 O.2     1  UNL1       -0.5170
     28 O          22.5506   71.6430    1.3915 O.3     1  UNL1       -0.2858
     29 O          21.5205   72.5382    3.3290 O.3     1  UNL1       -0.3258
     30 O          21.1527   75.7975    0.8206 O.3     1  UNL1       -0.3794
     31 O          23.0495   75.8737    2.9757 O.3     1  UNL1       -0.3794
     32 O          20.7990   73.1222   -0.2268 O.3     1  UNL1       -0.3775
     33 C          21.7872   74.6367    1.3641 C.3     1  UNL1        0.1715
     34 C          22.0360   74.8796    2.8540 C.3     1  UNL1        0.1694
     35 C          20.8751   73.4283    1.1613 C.3     1  UNL1        0.1967
     36 C          22.4671   73.5877    3.5615 C.3     1  UNL1        0.1761
     37 C          21.3672   72.2111    1.9465 C.3     1  UNL1        0.2704
     38 H          21.7269   76.5683    0.9456 H       1  UNL1        0.2105
     39 H          22.7650   76.6841    2.5244 H       1  UNL1        0.2105
     40 H          20.4860   73.9005   -0.7128 H       1  UNL1        0.2106
     41 O          21.7630   72.7884    5.7002 O.3     1  UNL1       -0.3794
     42 C          22.5681   73.7704    5.0742 C.3     1  UNL1        0.1693
     43 H          21.8177   72.8923    6.6635 H       1  UNL1        0.2105
@<TRIPOS>UNITY_ATOM_ATTR
2 1
charge -1
26 1
charge -1
@<TRIPOS>BOND
     1    25    28    1
     2    25    24    1
     3    25    26    1
     4    25    27    2
     5     1     4    1
     6     1    24    1
     7     1     2    1
     8     1     3    2
     9     6    11    1
    10     6    12    1
    11    29    36    1
    12    29    37    1
    13     7     9    1
    14     7    13    1
    15     8    10    1
    16     8    14    1
    17    28    37    1
    18     4     5    1
    19    30    33    1
    20    30    38    1
    21    31    34    1
    22    31    39    1
    23    32    35    1
    24    32    40    1
    25    41    42    1
    26    41    43    1
    27    15    19    2
    28    16    22    2
    29    17    12    1
    30    17    19   ar
    31    17    20   ar
    32    18    19   ar
    33    18    22   ar
    34    18    23    1
    35     9    10    1
    36     9    11    1
    37    10    12    1
    38    11     5    1
    39    33    34    1
    40    33    35    1
    41    34    36    1
    42    35    37    1
    43    36    42    1
    44    20    21   ar
    45    21    22   ar
@<TRIPOS>MOLECULE
*****
 43 45 0 0 0
SMALL
GASTEIGER

@<TRIPOS>ATOM
      1 P          22.8352   71.7771   -2.2927 P.3     1  UNL1        0.2189
      2 O          23.5264   73.2332   -2.4312 O.co2   1  UNL1       -0.4371
      3 O          23.4055   70.7170   -3.1885 O.2     1  UNL1       -0.5170
      4 O          21.2560   72.0776   -2.4768 O.3     1  UNL1       -0.3112
      5 C          20.5500   71.3858   -3.4920 C.3     1  UNL1        0.1811
      6 O          18.6114   72.2007   -4.6546 O.3     1  UNL1       -0.3308
      7 O          16.9993   70.9523   -2.4561 O.3     1  UNL1       -0.3794
      8 O          16.7697   69.1287   -4.4707 O.3     1  UNL1       -0.3779
      9 C          18.2066   70.4933   -3.0619 C.3     1  UNL1        0.1713
     10 C          17.9248   69.9422   -4.4441 C.3     1  UNL1        0.1895
     11 C          19.0672   71.7111   -3.3744 C.3     1  UNL1        0.1764
     12 C          17.7647   71.2118   -5.2630 C.3     1  UNL1        0.2383
     13 H          16.4333   70.1921   -2.2471 H       1  UNL1        0.2105
     14 H          16.9212   68.3341   -3.9356 H       1  UNL1        0.2106
     15 O          16.0408   70.3510   -7.3281 O.2     1  UNL1       -0.2464
     16 O          19.4020   70.5678  -10.4739 O.2     1  UNL1       -0.2670
     17 N          18.1628   71.0351   -6.6310 N.ar    1  UNL1       -0.2551
     18 N          17.7158   70.4598   -8.8928 N.ar    1  UNL1       -0.2743
     19 C          17.2198   70.5978   -7.5901 C.ar    1  UNL1        0.3323
     20 C          19.4755   71.2947   -7.0099 C.ar    1  UNL1        0.0869
     21 C          19.9329   71.1569   -8.2561 C.ar    1  UNL1        0.0795
     22 C          19.0118   70.7043   -9.3185 C.ar    1  UNL1        0.2626
     23 H          17.0768   70.1560   -9.5778 H       1  UNL1        0.1734
     24 O          22.9634   71.4627   -0.7122 O.3     1  UNL1       -0.2703
     25 P          22.0257   70.5933    0.2766 P.3     1  UNL1        0.2208
     26 O          23.0845   69.9329    1.3064 O.co2   1  UNL1       -0.4371
     27 O          21.1438   69.6017   -0.4255 O.2     1  UNL1       -0.5170
     28 O          21.2318   71.6897    1.1556 O.3     1  UNL1       -0.2858
     29 O          21.6045   74.0295    1.2107 O.3     1  UNL1       -0.3258
     30 O          20.3661   73.4667    5.1095 O.3     1  UNL1       -0.3794
     31 O          18.6169   74.7679    3.2400 O.3     1  UNL1       -0.3794
     32 O          22.0542   71.4928    3.8314 O.3     1  UNL1       -0.3775
     33 C          20.3844   73.2236    3.7002 C.3     1  UNL1        0.1715
     34 C          19.9966   74.5193    2.9850 C.3     1  UNL1        0.1694
     35 C          21.7872   72.7812    3.2881 C.3     1  UNL1        0.1967
     36 C          20.2508   74.4161    1.4751 C.3     1  UNL1        0.1761
     37 C          21.9485   72.7591    1.7671 C.3     1  UNL1        0.2704
     38 H          19.4781   73.7475    5.3777 H       1  UNL1        0.2105
     39 H          18.4698   74.8304    4.1969 H       1  UNL1        0.2105
     40 H          21.9491   71.5200    4.7947 H       1  UNL1        0.2106
     41 O          18.9199   75.6030   -0.1151 O.3     1  UNL1       -0.3794
     42 C          20.0202   75.7477    0.7640 C.3     1  UNL1        0.1693
     43 H          18.7612   76.4430   -0.5744 H       1  UNL1        0.2105
@<TRIPOS>UNITY_ATOM_ATTR
2 1
charge -1
26 1
charge -1
@<TRIPOS>BOND
     1    25    28    1
     2    25    24    1
     3    25    26    1
     4    25    27    2
     5     1     4    1
     6     1    24    1
     7     1     2    1
     8     1     3    2
     9     6    11    1
    10     6    12    1
    11    29    36    1
    12    29    37    1
    13     7     9    1
    14     7    13    1
    15     8    10    1
    16     8    14    1
    17    28    37    1
    18     4     5    1
    19    30    33    1
    20    30    38    1
    21    31    34    1
    22    31    39    1
    23    32    35    1
    24    32    40    1
    25    41    42    1
    26    41    43    1
    27    15    19    2
    28    16    22    2
    29    17    12    1
    30    17    19   ar
    31    17    20   ar
    32    18    19   ar
    33    18    22   ar
    34    18    23    1
    35     9    10    1
    36     9    11    1
    37    10    12    1
    38    11     5    1
    39    33    34    1
    40    33    35    1
    41    34    36    1
    42    35    37    1
    43    36    42    1
    44    20    21   ar
    45    21    22   ar
@<TRIPOS>MOLECULE
*****
 43 45 0 0 0
SMALL
GASTEIGER

@<TRIPOS>ATOM
      1 P          21.9719   73.9338   -5.7549 P.3     1  UNL1        0.2189
      2 O          20.6529   74.4625   -4.9815 O.co2   1  UNL1       -0.4371
      3 O          23.0949   74.9250   -5.8428 O.2     1  UNL1       -0.5170
      4 O          21.4018   73.3906   -7.1683 O.3     1  UNL1       -0.3112
      5 C          20.2896   74.0506   -7.7473 C.3     1  UNL1        0.1811
      6 O          19.6462   71.7999   -8.2899 O.3     1  UNL1       -0.3308
      7 O          17.9393   73.0053  -10.4403 O.3     1  UNL1       -0.3794
      8 O          16.1278   72.4708   -8.4733 O.3     1  UNL1       -0.3779
      9 C          18.2286   73.5009   -9.1342 C.3     1  UNL1        0.1713
     10 C          17.4670   72.7100   -8.0911 C.3     1  UNL1        0.1895
     11 C          19.6744   73.1480   -8.8079 C.3     1  UNL1        0.1764
     12 C          18.2866   71.4339   -8.0027 C.3     1  UNL1        0.2383
     13 H          17.0212   73.2191  -10.6711 H       1  UNL1        0.2105
     14 H          15.6481   73.3127   -8.5152 H       1  UNL1        0.2106
     15 O          16.0825   69.9719   -7.0117 O.2     1  UNL1       -0.2464
     16 O          18.1809   69.1863   -2.9841 O.2     1  UNL1       -0.2670
     17 N          18.2302   70.8359   -6.6987 N.ar    1  UNL1       -0.2551
     18 N          17.1292   69.5817   -5.0071 N.ar    1  UNL1       -0.2743
     19 C          17.0761   70.1233   -6.2978 C.ar    1  UNL1        0.3323
     20 C          19.3113   70.9586   -5.8326 C.ar    1  UNL1        0.0869
     21 C          19.3457   70.4374   -4.6045 C.ar    1  UNL1        0.0795
     22 C          18.1800   69.6777   -4.1086 C.ar    1  UNL1        0.2626
     23 H          16.3362   69.0814   -4.7062 H       1  UNL1        0.1734
     24 O          22.3364   72.5726   -4.9629 O.3     1  UNL1       -0.2703
     25 P          23.1038   72.3335   -3.5605 P.3     1  UNL1        0.2208
     26 O          24.3944   73.3025   -3.6737 O.co2   1  UNL1       -0.4371
     27 O          23.4315   70.8963   -3.2756 O.2     1  UNL1       -0.5170
     28 O          22.1619   73.0367   -2.4544 O.3     1  UNL1       -0.2858
     29 O          21.4269   71.3291   -0.9846 O.3     1  UNL1       -0.3258
     30 O          19.3774   74.5248    0.6395 O.3     1  UNL1       -0.3794
     31 O          21.6280   73.4229    2.0427 O.3     1  UNL1       -0.3794
     32 O          19.6686   74.3052   -2.2322 O.3     1  UNL1       -0.3775
     33 C          20.4754   73.8726   -0.0043 C.3     1  UNL1        0.1715
     34 C          21.0030   72.7843    0.9327 C.3     1  UNL1        0.1694
     35 C          19.9923   73.2625   -1.3188 C.3     1  UNL1        0.1967
     36 C          22.0012   71.8686    0.2116 C.3     1  UNL1        0.1761
     37 C          21.0414   72.3306   -1.9281 C.3     1  UNL1        0.2704
     38 H          19.6775   74.9148    1.4746 H       1  UNL1        0.2105
     39 H          20.9871   73.9985    2.4890 H       1  UNL1        0.2105
     40 H          19.0035   74.8880   -1.8349 H       1  UNL1        0.2106
     41 O          21.8239   69.5109    0.5561 O.3     1  UNL1       -0.3794
     42 C          22.4201   70.6836    1.0791 C.3     1  UNL1        0.1693
     43 H          22.0820   68.7484    1.0981 H       1  UNL1        0.2105
@<TRIPOS>UNITY_ATOM_ATTR
2 1
charge -1
26 1
charge -1
@<TRIPOS>BOND
     1    25    28    1
     2    25    24    1
     3    25    26    1
     4    25    27    2
     5     1     4    1
     6     1    24    1
     7     1     2    1
     8     1     3    2
     9     6    11    1
    10     6    12    1
    11    29    36    1
    12    29    37    1
    13     7     9    1
    14     7    13    1
    15     8    10    1
    16     8    14    1
    17    28    37    1
    18     4     5    1
    19    30    33    1
    20    30    38    1
    21    31    34    1
    22    31    39    1
    23    32    35    1
    24    32    40    1
    25    41    42    1
    26    41    43    1
    27    15    19    2
    28    16    22    2
    29    17    12    1
    30    17    19   ar
    31    17    20   ar
    32    18    19   ar
    33    18    22   ar
    34    18    23    1
    35     9    10    1
    36     9    11    1
    37    10    12    1
    38    11     5    1
    39    33    34    1
    40    33    35    1
    41    34    36    1
    42    35    37    1
    43    36    42    1
    44    20    21   ar
    45    21    22   ar
@<TRIPOS>MOLECULE
*****
 43 45 0 0 0
SMALL
GASTEIGER

@<TRIPOS>ATOM
      1 P          23.0433   71.7546   -3.1581 P.3     1  UNL1        0.2189
      2 O          23.8548   72.9061   -3.9537 O.co2   1  UNL1       -0.4371
      3 O          23.6401   70.3809   -3.2489 O.2     1  UNL1       -0.5170
      4 O          21.5273   71.8996   -3.7045 O.3     1  UNL1       -0.3112
      5 C          20.6511   70.7943   -3.5688 C.3     1  UNL1        0.1811
      6 O          18.8337   71.9083   -4.6778 O.3     1  UNL1       -0.3308
      7 O          17.0776   70.7886   -2.5206 O.3     1  UNL1       -0.3794
      8 O          16.6022   69.1014   -4.6096 O.3     1  UNL1       -0.3779
      9 C          18.2116   70.2012   -3.1565 C.3     1  UNL1        0.1713
     10 C          17.8549   69.7532   -4.5585 C.3     1  UNL1        0.1895
     11 C          19.2249   71.3071   -3.4240 C.3     1  UNL1        0.1764
     12 C          17.8617   71.0675   -5.3205 C.3     1  UNL1        0.2383
     13 H          16.4167   70.1014   -2.3394 H       1  UNL1        0.2105
     14 H          16.6490   68.2710   -4.1107 H       1  UNL1        0.2106
     15 O          16.0472   70.4275   -7.3883 O.2     1  UNL1       -0.2464
     16 O          19.3818   70.4474  -10.5697 O.2     1  UNL1       -0.2670
     17 N          18.2285   70.8999   -6.6985 N.ar    1  UNL1       -0.2551
     18 N          17.7090   70.4381   -8.9708 N.ar    1  UNL1       -0.2743
     19 C          17.2406   70.5779   -7.6581 C.ar    1  UNL1        0.3323
     20 C          19.5549   71.0549   -7.0863 C.ar    1  UNL1        0.0869
     21 C          19.9855   70.9170   -8.3420 C.ar    1  UNL1        0.0795
     22 C          19.0171   70.5810   -9.4057 C.ar    1  UNL1        0.2626
     23 H          17.0387   70.2135   -9.6563 H       1  UNL1        0.1734
     24 O          22.9471   72.3484   -1.6577 O.3     1  UNL1       -0.2703
     25 P          22.1566   73.6311   -1.0724 P.3     1  UNL1        0.2208
     26 O          20.6395   73.0917   -0.9145 O.co2   1  UNL1       -0.4371
     27 O          22.2893   74.8703   -1.9095 O.2     1  UNL1       -0.5170
     28 O          22.6937   73.7861    0.4417 O.3     1  UNL1       -0.2858
     29 O          21.6013   74.5540    2.3997 O.3     1  UNL1       -0.3258
     30 O          25.3497   76.1531    3.0652 O.3     1  UNL1       -0.3794
     31 O          24.4690   73.9076    4.6240 O.3     1  UNL1       -0.3794
     32 O          24.2474   76.1224    0.3888 O.3     1  UNL1       -0.3775
     33 C          24.4132   75.1783    2.5984 C.3     1  UNL1        0.1715
     34 C          23.6030   74.6793    3.7965 C.3     1  UNL1        0.1694
     35 C          23.4966   75.8235    1.5607 C.3     1  UNL1        0.1967
     36 C          22.4051   73.8345    3.3420 C.3     1  UNL1        0.1761
     37 C          22.3111   74.9206    1.2149 C.3     1  UNL1        0.2704
     38 H          25.9351   75.7497    3.7241 H       1  UNL1        0.2105
     39 H          25.2213   74.4525    4.9037 H       1  UNL1        0.2105
     40 H          24.9947   76.6948    0.6209 H       1  UNL1        0.2106
     41 O          22.1139   72.4192    5.2449 O.3     1  UNL1       -0.3794
     42 C          21.4950   73.4583    4.5092 C.3     1  UNL1        0.1693
     43 H          21.5461   72.1696    5.9912 H       1  UNL1        0.2105
@<TRIPOS>UNITY_ATOM_ATTR
2 1
charge -1
26 1
charge -1
@<TRIPOS>BOND
     1    25    28    1
     2    25    24    1
     3    25    26    1
     4    25    27    2
     5     1     4    1
     6     1    24    1
     7     1     2    1
     8     1     3    2
     9     6    11    1
    10     6    12    1
    11    29    36    1
    12    29    37    1
    13     7     9    1
    14     7    13    1
    15     8    10    1
    16     8    14    1
    17    28    37    1
    18     4     5    1
    19    30    33    1
    20    30    38    1
    21    31    34    1
    22    31    39    1
    23    32    35    1
    24    32    40    1
    25    41    42    1
    26    41    43    1
    27    15    19    2
    28    16    22    2
    29    17    12    1
    30    17    19   ar
    31    17    20   ar
    32    18    19   ar
    33    18    22   ar
    34    18    23    1
    35     9    10    1
    36     9    11    1
    37    10    12    1
    38    11     5    1
    39    33    34    1
    40    33    35    1
    41    34    36    1
    42    35    37    1
    43    36    42    1
    44    20    21   ar
    45    21    22   ar
@<TRIPOS>MOLECULE
*****
 43 45 0 0 0
SMALL
GASTEIGER

@<TRIPOS>ATOM
      1 P          21.9095   71.0022   -1.1258 P.3     1  UNL1        0.2189
      2 O          23.3725   70.3561   -1.3694 O.co2   1  UNL1       -0.4371
      3 O          20.8900   70.0635   -0.5504 O.2     1  UNL1       -0.5170
      4 O          21.5320   71.6591   -2.5554 O.3     1  UNL1       -0.3112
      5 C          20.6995   70.9264   -3.4374 C.3     1  UNL1        0.1811
      6 O          18.8636   72.0077   -4.5484 O.3     1  UNL1       -0.3308
      7 O          17.1294   70.8782   -2.3787 O.3     1  UNL1       -0.3794
      8 O          16.6714   69.1707   -4.4551 O.3     1  UNL1       -0.3779
      9 C          18.2696   70.3023   -3.0140 C.3     1  UNL1        0.1713
     10 C          17.9151   69.8401   -4.4119 C.3     1  UNL1        0.1895
     11 C          19.2666   71.4204   -3.2918 C.3     1  UNL1        0.1764
     12 C          17.9015   71.1493   -5.1826 C.3     1  UNL1        0.2383
     13 H          16.4786   70.1831   -2.1910 H       1  UNL1        0.2105
     14 H          16.7312   68.3444   -3.9507 H       1  UNL1        0.2106
     15 O          16.1005   70.4161   -7.2313 O.2     1  UNL1       -0.2464
     16 O          19.4145   70.5183  -10.4326 O.2     1  UNL1       -0.2670
     17 N          18.2666   70.9776   -6.5605 N.ar    1  UNL1       -0.2551
     18 N          17.7520   70.4678   -8.8236 N.ar    1  UNL1       -0.2743
     19 C          17.2860   70.6070   -7.5100 C.ar    1  UNL1        0.3323
     20 C          19.5842   71.1766   -6.9582 C.ar    1  UNL1        0.0869
     21 C          20.0127   71.0385   -8.2146 C.ar    1  UNL1        0.0795
     22 C          19.0515   70.6533   -9.2681 C.ar    1  UNL1        0.2626
     23 H          17.0867   70.2098   -9.5023 H       1  UNL1        0.1734
     24 O          22.2304   72.2924   -0.2064 O.3     1  UNL1       -0.2703
     25 P          21.4628   73.7072   -0.0575 P.3     1  UNL1        0.2208
     26 O          19.9049   73.3033   -0.2232 O.co2   1  UNL1       -0.4371
     27 O          21.9330   74.7659   -1.0124 O.2     1  UNL1       -0.5170
     28 O          21.6198   74.0950    1.5013 O.3     1  UNL1       -0.2858
     29 O          23.6561   74.2719    2.7009 O.3     1  UNL1       -0.3258
     30 O          21.1758   73.0866    5.7822 O.3     1  UNL1       -0.3794
     31 O          22.1217   75.7965    5.6859 O.3     1  UNL1       -0.3794
     32 O          20.8373   71.9550    3.1394 O.3     1  UNL1       -0.3775
     33 C          21.5155   73.7686    4.5719 C.3     1  UNL1        0.1715
     34 C          22.6495   74.7495    4.8763 C.3     1  UNL1        0.1694
     35 C          21.9565   72.7440    3.5284 C.3     1  UNL1        0.1967
     36 C          23.2478   75.3227    3.5846 C.3     1  UNL1        0.1761
     37 C          22.5817   73.4168    2.3051 C.3     1  UNL1        0.2704
     38 H          20.8944   73.7315    6.4489 H       1  UNL1        0.2105
     39 H          21.7466   75.4212    6.4981 H       1  UNL1        0.2105
     40 H          20.4506   71.5342    3.9225 H       1  UNL1        0.2106
     41 O          25.5399   75.3309    4.2595 O.3     1  UNL1       -0.3794
     42 C          24.4814   76.1807    3.8572 C.3     1  UNL1        0.1693
     43 H          26.3318   75.8633    4.4361 H       1  UNL1        0.2105
@<TRIPOS>UNITY_ATOM_ATTR
2 1
charge -1
26 1
charge -1
@<TRIPOS>BOND
     1    25    28    1
     2    25    24    1
     3    25    26    1
     4    25    27    2
     5     1     4    1
     6     1    24    1
     7     1     2    1
     8     1     3    2
     9     6    11    1
    10     6    12    1
    11    29    36    1
    12    29    37    1
    13     7     9    1
    14     7    13    1
    15     8    10    1
    16     8    14    1
    17    28    37    1
    18     4     5    1
    19    30    33    1
    20    30    38    1
    21    31    34    1
    22    31    39    1
    23    32    35    1
    24    32    40    1
    25    41    42    1
    26    41    43    1
    27    15    19    2
    28    16    22    2
    29    17    12    1
    30    17    19   ar
    31    17    20   ar
    32    18    19   ar
    33    18    22   ar
    34    18    23    1
    35     9    10    1
    36     9    11    1
    37    10    12    1
    38    11     5    1
    39    33    34    1
    40    33    35    1
    41    34    36    1
    42    35    37    1
    43    36    42    1
    44    20    21   ar
    45    21    22   ar
@<TRIPOS>MOLECULE
*****
 43 45 0 0 0
SMALL
GASTEIGER

@<TRIPOS>ATOM
      1 P          22.5852   71.8989   -3.1660 P.3     1  UNL1        0.2189
      2 O          21.7398   73.0700   -2.4370 O.co2   1  UNL1       -0.4371
      3 O          23.6922   72.3780   -4.0584 O.2     1  UNL1       -0.5170
      4 O          21.4531   70.9882   -3.8780 O.3     1  UNL1       -0.3112
      5 C          20.2855   71.6229   -4.3696 C.3     1  UNL1        0.1811
      6 O          17.9981   72.1237   -3.8303 O.3     1  UNL1       -0.3308
      7 O          17.9652   69.5055   -2.3692 O.3     1  UNL1       -0.3794
      8 O          16.7102   68.8946   -4.7119 O.3     1  UNL1       -0.3779
      9 C          18.6353   69.8551   -3.5792 C.3     1  UNL1        0.1713
     10 C          17.6435   69.9556   -4.7193 C.3     1  UNL1        0.1895
     11 C          19.1178   71.2944   -3.4495 C.3     1  UNL1        0.1764
     12 C          16.9968   71.3050   -4.4562 C.3     1  UNL1        0.2383
     13 H          17.6483   68.5901   -2.4282 H       1  UNL1        0.2105
     14 H          17.1701   68.0581   -4.8838 H       1  UNL1        0.2106
     15 O          17.6495   70.4249   -7.0595 O.2     1  UNL1       -0.2464
     16 O          15.2571   73.8453   -9.0136 O.2     1  UNL1       -0.2670
     17 N          16.5576   71.9465   -5.6633 N.ar    1  UNL1       -0.2551
     18 N          16.4576   72.1286   -8.0304 N.ar    1  UNL1       -0.2743
     19 C          16.9423   71.4250   -6.9204 C.ar    1  UNL1        0.3323
     20 C          15.7544   73.0795   -5.5931 C.ar    1  UNL1        0.0869
     21 C          15.3016   73.7397   -6.6610 C.ar    1  UNL1        0.0795
     22 C          15.6576   73.2602   -8.0121 C.ar    1  UNL1        0.2626
     23 H          16.7131   71.7838   -8.9167 H       1  UNL1        0.1734
     24 O          23.0690   70.9765   -1.9299 O.3     1  UNL1       -0.2703
     25 P          22.3787   70.6692   -0.5009 P.3     1  UNL1        0.2208
     26 O          23.3761   69.5846    0.1673 O.co2   1  UNL1       -0.4371
     27 O          20.9486   70.2216   -0.5919 O.2     1  UNL1       -0.5170
     28 O          22.6047   72.0156    0.3600 O.3     1  UNL1       -0.2858
     29 O          22.3735   72.6475    2.6324 O.3     1  UNL1       -0.3258
     30 O          20.4956   75.8684    0.8575 O.3     1  UNL1       -0.3794
     31 O          23.0929   76.2130    2.0336 O.3     1  UNL1       -0.3794
     32 O          20.1334   73.2087   -0.2264 O.3     1  UNL1       -0.3775
     33 C          21.4657   74.8230    0.9654 C.3     1  UNL1        0.1715
     34 C          22.2840   75.0577    2.2366 C.3     1  UNL1        0.1694
     35 C          20.7448   73.4779    1.0307 C.3     1  UNL1        0.1967
     36 C          23.1615   73.8417    2.5629 C.3     1  UNL1        0.1761
     37 C          21.6987   72.3437    1.4100 C.3     1  UNL1        0.2704
     38 H          20.9468   76.7252    0.8151 H       1  UNL1        0.2105
     39 H          22.5267   76.9735    1.8279 H       1  UNL1        0.2105
     40 H          19.5318   73.9337   -0.4550 H       1  UNL1        0.2106
     41 O          24.5134   75.2487    3.9419 O.3     1  UNL1       -0.3794
     42 C          23.8664   73.9899    3.9095 C.3     1  UNL1        0.1693
     43 H          24.9661   75.3570    4.7934 H       1  UNL1        0.2105
@<TRIPOS>UNITY_ATOM_ATTR
2 1
charge -1
26 1
charge -1
@<TRIPOS>BOND
     1    25    28    1
     2    25    24    1
     3    25    26    1
     4    25    27    2
     5     1     4    1
     6     1    24    1
     7     1     2    1
     8     1     3    2
     9     6    11    1
    10     6    12    1
    11    29    36    1
    12    29    37    1
    13     7     9    1
    14     7    13    1
    15     8    10    1
    16     8    14    1
    17    28    37    1
    18     4     5    1
    19    30    33    1
    20    30    38    1
    21    31    34    1
    22    31    39    1
    23    32    35    1
    24    32    40    1
    25    41    42    1
    26    41    43    1
    27    15    19    2
    28    16    22    2
    29    17    12    1
    30    17    19   ar
    31    17    20   ar
    32    18    19   ar
    33    18    22   ar
    34    18    23    1
    35     9    10    1
    36     9    11    1
    37    10    12    1
    38    11     5    1
    39    33    34    1
    40    33    35    1
    41    34    36    1
    42    35    37    1
    43    36    42    1
    44    20    21   ar
    45    21    22   ar
@<TRIPOS>MOLECULE
*****
 43 45 0 0 0
SMALL
GASTEIGER

@<TRIPOS>ATOM
      1 P          22.7407   72.0629   -2.4522 P.3     1  UNL1        0.2189
      2 O          23.2135   73.5649   -2.0809 O.co2   1  UNL1       -0.4371
      3 O          23.4801   71.4299   -3.5941 O.2     1  UNL1       -0.5170
      4 O          21.1390   72.1949   -2.6394 O.3     1  UNL1       -0.3112
      5 C          20.6102   72.2027   -3.9540 C.3     1  UNL1        0.1811
      6 O          20.8318   73.6416   -5.8656 O.3     1  UNL1       -0.3308
      7 O          19.3054   75.6757   -4.2770 O.3     1  UNL1       -0.3794
      8 O          17.3951   74.6648   -5.9400 O.3     1  UNL1       -0.3779
      9 C          19.1531   74.2576   -4.3105 C.3     1  UNL1        0.1713
     10 C          18.4843   73.8309   -5.6006 C.3     1  UNL1        0.1895
     11 C          20.5387   73.6399   -4.4512 C.3     1  UNL1        0.1764
     12 C          19.6280   73.9290   -6.5958 C.3     1  UNL1        0.2383
     13 H          18.4335   76.0923   -4.1872 H       1  UNL1        0.2105
     14 H          16.6939   74.5667   -5.2772 H       1  UNL1        0.2106
     15 O          18.2414   74.4374   -9.0034 O.2     1  UNL1       -0.2464
     16 O          19.1994   70.2426  -10.6549 O.2     1  UNL1       -0.2670
     17 N          19.4996   72.9876   -7.6722 N.ar    1  UNL1       -0.2551
     18 N          18.7197   72.3483   -9.8238 N.ar    1  UNL1       -0.2743
     19 C          18.7815   73.3416   -8.8382 C.ar    1  UNL1        0.3323
     20 C          20.0823   71.7294   -7.5657 C.ar    1  UNL1        0.0869
     21 C          20.0130   70.7930   -8.5142 C.ar    1  UNL1        0.0795
     22 C          19.2811   71.0827   -9.7641 C.ar    1  UNL1        0.2626
     23 H          18.2242   72.5724  -10.6449 H       1  UNL1        0.1734
     24 O          22.8787   71.2800   -1.0448 O.3     1  UNL1       -0.2703
     25 P          21.7874   70.4714   -0.1684 P.3     1  UNL1        0.2208
     26 O          22.6986   69.5657    0.8150 O.co2   1  UNL1       -0.4371
     27 O          20.7963   69.6937   -0.9850 O.2     1  UNL1       -0.5170
     28 O          21.1309   71.5864    0.7963 O.3     1  UNL1       -0.2858
     29 O          21.7466   73.8708    0.9332 O.3     1  UNL1       -0.3258
     30 O          20.5229   73.2824    4.8329 O.3     1  UNL1       -0.3794
     31 O          18.8875   74.8324    3.0521 O.3     1  UNL1       -0.3794
     32 O          21.9737   71.1974    3.4446 O.3     1  UNL1       -0.3775
     33 C          20.4917   73.0959    3.4153 C.3     1  UNL1        0.1715
     34 C          20.2291   74.4526    2.7587 C.3     1  UNL1        0.1694
     35 C          21.8334   72.5275    2.9570 C.3     1  UNL1        0.1967
     36 C          20.4455   74.3847    1.2409 C.3     1  UNL1        0.1761
     37 C          21.9656   72.5502    1.4331 C.3     1  UNL1        0.2704
     38 H          19.6737   73.6427    5.1304 H       1  UNL1        0.2105
     39 H          18.7640   74.8711    4.0136 H       1  UNL1        0.2105
     40 H          21.8884   71.1965    4.4103 H       1  UNL1        0.2106
     41 O          21.6518   76.2297    0.3191 O.3     1  UNL1       -0.3794
     42 C          20.3430   75.7606    0.5864 C.3     1  UNL1        0.1693
     43 H          21.6022   77.1045   -0.0978 H       1  UNL1        0.2105
@<TRIPOS>UNITY_ATOM_ATTR
2 1
charge -1
26 1
charge -1
@<TRIPOS>BOND
     1    25    28    1
     2    25    24    1
     3    25    26    1
     4    25    27    2
     5     1     4    1
     6     1    24    1
     7     1     2    1
     8     1     3    2
     9     6    11    1
    10     6    12    1
    11    29    36    1
    12    29    37    1
    13     7     9    1
    14     7    13    1
    15     8    10    1
    16     8    14    1
    17    28    37    1
    18     4     5    1
    19    30    33    1
    20    30    38    1
    21    31    34    1
    22    31    39    1
    23    32    35    1
    24    32    40    1
    25    41    42    1
    26    41    43    1
    27    15    19    2
    28    16    22    2
    29    17    12    1
    30    17    19   ar
    31    17    20   ar
    32    18    19   ar
    33    18    22   ar
    34    18    23    1
    35     9    10    1
    36     9    11    1
    37    10    12    1
    38    11     5    1
    39    33    34    1
    40    33    35    1
    41    34    36    1
    42    35    37    1
    43    36    42    1
    44    20    21   ar
    45    21    22   ar
@<TRIPOS>MOLECULE
*****
 43 45 0 0 0
SMALL
GASTEIGER

@<TRIPOS>ATOM
      1 P          22.9324   72.0407   -2.9980 P.3     1  UNL1        0.2189
      2 O          23.5124   70.5428   -3.1910 O.co2   1  UNL1       -0.4371
      3 O          22.8983   72.5293   -1.5797 O.2     1  UNL1       -0.5170
      4 O          21.5077   72.0073   -3.7641 O.3     1  UNL1       -0.3112
      5 C          20.6637   70.8851   -3.5736 C.3     1  UNL1        0.1811
      6 O          18.8140   71.9478   -4.6795 O.3     1  UNL1       -0.3308
      7 O          17.0976   70.8031   -2.5036 O.3     1  UNL1       -0.3794
      8 O          16.6497   69.0899   -4.5774 O.3     1  UNL1       -0.3779
      9 C          18.2414   70.2378   -3.1421 C.3     1  UNL1        0.1713
     10 C          17.8870   69.7713   -4.5386 C.3     1  UNL1        0.1895
     11 C          19.2267   71.3653   -3.4238 C.3     1  UNL1        0.1764
     12 C          17.8583   71.0797   -5.3101 C.3     1  UNL1        0.2383
     13 H          16.4541   70.1019   -2.3134 H       1  UNL1        0.2105
     14 H          16.7190   68.2645   -4.0727 H       1  UNL1        0.2106
     15 O          16.0348   70.4526   -7.3741 O.2     1  UNL1       -0.2464
     16 O          19.3620   70.4531  -10.5633 O.2     1  UNL1       -0.2670
     17 N          18.2207   70.9106   -6.6890 N.ar    1  UNL1       -0.2551
     18 N          17.6930   70.4536   -8.9604 N.ar    1  UNL1       -0.2743
     19 C          17.2286   70.5955   -7.6465 C.ar    1  UNL1        0.3323
     20 C          19.5472   71.0574   -7.0799 C.ar    1  UNL1        0.0869
     21 C          19.9739   70.9175   -8.3367 C.ar    1  UNL1        0.0795
     22 C          19.0009   70.5883   -9.3983 C.ar    1  UNL1        0.2626
     23 H          17.0196   70.2337   -9.6445 H       1  UNL1        0.1734
     24 O          23.8579   72.9194   -3.9902 O.3     1  UNL1       -0.2703
     25 P          24.2972   74.4740   -3.9331 P.3     1  UNL1        0.2208
     26 O          23.8539   74.9305   -2.4456 O.co2   1  UNL1       -0.4371
     27 O          23.7241   75.3163   -5.0358 O.2     1  UNL1       -0.5170
     28 O          25.9101   74.4412   -3.8857 O.3     1  UNL1       -0.2858
     29 O          26.8251   76.1508   -2.5230 O.3     1  UNL1       -0.3258
     30 O          30.2830   74.8627   -4.3763 O.3     1  UNL1       -0.3794
     31 O          29.8387   74.2346   -1.6094 O.3     1  UNL1       -0.3794
     32 O          27.8094   75.0049   -5.8732 O.3     1  UNL1       -0.3775
     33 C          28.9861   74.7166   -3.7915 C.3     1  UNL1        0.1715
     34 C          29.0612   75.1821   -2.3360 C.3     1  UNL1        0.1694
     35 C          27.9863   75.5640   -4.5761 C.3     1  UNL1        0.1967
     36 C          27.6605   75.3074   -1.7215 C.3     1  UNL1        0.1761
     37 C          26.6414   75.6641   -3.8539 C.3     1  UNL1        0.2704
     38 H          30.9225   74.3267   -3.8831 H       1  UNL1        0.2105
     39 H          30.7205   74.1645   -2.0078 H       1  UNL1        0.2105
     40 H          28.6678   74.9471   -6.3201 H       1  UNL1        0.2106
     41 O          26.5270   75.5402    0.3689 O.3     1  UNL1       -0.3794
     42 C          27.7021   75.9200   -0.3232 C.3     1  UNL1        0.1693
     43 H          26.5399   75.9226    1.2607 H       1  UNL1        0.2105
@<TRIPOS>UNITY_ATOM_ATTR
2 1
charge -1
26 1
charge -1
@<TRIPOS>BOND
     1    25    28    1
     2    25    24    1
     3    25    26    1
     4    25    27    2
     5     1     4    1
     6     1    24    1
     7     1     2    1
     8     1     3    2
     9     6    11    1
    10     6    12    1
    11    29    36    1
    12    29    37    1
    13     7     9    1
    14     7    13    1
    15     8    10    1
    16     8    14    1
    17    28    37    1
    18     4     5    1
    19    30    33    1
    20    30    38    1
    21    31    34    1
    22    31    39    1
    23    32    35    1
    24    32    40    1
    25    41    42    1
    26    41    43    1
    27    15    19    2
    28    16    22    2
    29    17    12    1
    30    17    19   ar
    31    17    20   ar
    32    18    19   ar
    33    18    22   ar
    34    18    23    1
    35     9    10    1
    36     9    11    1
    37    10    12    1
    38    11     5    1
    39    33    34    1
    40    33    35    1
    41    34    36    1
    42    35    37    1
    43    36    42    1
    44    20    21   ar
    45    21    22   ar
@<TRIPOS>MOLECULE
*****
 43 45 0 0 0
SMALL
GASTEIGER

@<TRIPOS>ATOM
      1 P          22.4013   73.0322   -4.4261 P.3     1  UNL1        0.2189
      2 O          22.7277   73.7728   -5.8270 O.co2   1  UNL1       -0.4371
      3 O          23.5457   72.2633   -3.8340 O.2     1  UNL1       -0.5170
      4 O          21.0668   72.1736   -4.7424 O.3     1  UNL1       -0.3112
      5 C          20.5113   71.3815   -3.7072 C.3     1  UNL1        0.1811
      6 O          18.5592   72.1626   -4.8703 O.3     1  UNL1       -0.3308
      7 O          16.9702   70.9283   -2.6471 O.3     1  UNL1       -0.3794
      8 O          16.7476   69.0761   -4.6361 O.3     1  UNL1       -0.3779
      9 C          18.1787   70.4727   -3.2531 C.3     1  UNL1        0.1713
     10 C          17.8951   69.9007   -4.6264 C.3     1  UNL1        0.1895
     11 C          19.0262   71.6943   -3.5861 C.3     1  UNL1        0.1764
     12 C          17.7188   71.1578   -5.4611 C.3     1  UNL1        0.2383
     13 H          16.4125   70.1656   -2.4250 H       1  UNL1        0.2105
     14 H          16.9095   68.2901   -4.0914 H       1  UNL1        0.2106
     15 O          15.9838   71.4323   -7.6729 O.2     1  UNL1       -0.2464
     16 O          19.3352   70.3990  -10.6631 O.2     1  UNL1       -0.2670
     17 N          18.1116   70.9666   -6.8288 N.ar    1  UNL1       -0.2551
     18 N          17.6540   70.9178   -9.1600 N.ar    1  UNL1       -0.2743
     19 C          17.1627   71.1277   -7.8651 C.ar    1  UNL1        0.3323
     20 C          19.4249   70.6237   -7.1311 C.ar    1  UNL1        0.0869
     21 C          19.8772   70.4258   -8.3711 C.ar    1  UNL1        0.0795
     22 C          18.9499   70.5744   -9.5113 C.ar    1  UNL1        0.2626
     23 H          17.0108   71.0241   -9.8980 H       1  UNL1        0.1734
     24 O          21.8480   74.2354   -3.4992 O.3     1  UNL1       -0.2703
     25 P          22.4261   74.8734   -2.1311 P.3     1  UNL1        0.2208
     26 O          21.4295   76.1168   -1.8515 O.co2   1  UNL1       -0.4371
     27 O          23.8791   75.2459   -2.1917 O.2     1  UNL1       -0.5170
     28 O          22.0597   73.7927   -0.9896 O.3     1  UNL1       -0.2858
     29 O          23.2709   73.7263    1.0463 O.3     1  UNL1       -0.3258
     30 O          21.8004   69.8679    1.0274 O.3     1  UNL1       -0.3794
     31 O          20.7124   71.7909    2.8620 O.3     1  UNL1       -0.3794
     32 O          22.6732   71.0926   -1.4460 O.3     1  UNL1       -0.3775
     33 C          21.7679   71.2758    0.7784 C.3     1  UNL1        0.1715
     34 C          21.9085   72.0029    2.1173 C.3     1  UNL1        0.1694
     35 C          22.9183   71.6441   -0.1567 C.3     1  UNL1        0.1967
     36 C          22.1498   73.5041    1.9097 C.3     1  UNL1        0.1761
     37 C          23.1037   73.1594   -0.2546 C.3     1  UNL1        0.2704
     38 H          21.0722   69.6273    1.6201 H       1  UNL1        0.2105
     39 H          20.5714   70.8391    2.9857 H       1  UNL1        0.2105
     40 H          22.5579   70.1330   -1.3706 H       1  UNL1        0.2106
     41 O          23.8208   74.5739    3.2411 O.3     1  UNL1       -0.3794
     42 C          22.4495   74.2222    3.2237 C.3     1  UNL1        0.1693
     43 H          24.0260   75.0320    4.0715 H       1  UNL1        0.2105
@<TRIPOS>UNITY_ATOM_ATTR
2 1
charge -1
26 1
charge -1
@<TRIPOS>BOND
     1    25    28    1
     2    25    24    1
     3    25    26    1
     4    25    27    2
     5     1     4    1
     6     1    24    1
     7     1     2    1
     8     1     3    2
     9     6    11    1
    10     6    12    1
    11    29    36    1
    12    29    37    1
    13     7     9    1
    14     7    13    1
    15     8    10    1
    16     8    14    1
    17    28    37    1
    18     4     5    1
    19    30    33    1
    20    30    38    1
    21    31    34    1
    22    31    39    1
    23    32    35    1
    24    32    40    1
    25    41    42    1
    26    41    43    1
    27    15    19    2
    28    16    22    2
    29    17    12    1
    30    17    19   ar
    31    17    20   ar
    32    18    19   ar
    33    18    22   ar
    34    18    23    1
    35     9    10    1
    36     9    11    1
    37    10    12    1
    38    11     5    1
    39    33    34    1
    40    33    35    1
    41    34    36    1
    42    35    37    1
    43    36    42    1
    44    20    21   ar
    45    21    22   ar
@<TRIPOS>MOLECULE
*****
 43 45 0 0 0
SMALL
GASTEIGER

@<TRIPOS>ATOM
      1 P          23.0500   71.9251   -3.4348 P.3     1  UNL1        0.2189
      2 O          23.8046   72.9380   -4.4457 O.co2   1  UNL1       -0.4371
      3 O          23.7060   70.5853   -3.2733 O.2     1  UNL1       -0.5170
      4 O          21.5254   71.9003   -3.9761 O.3     1  UNL1       -0.3112
      5 C          20.6874   70.8258   -3.5876 C.3     1  UNL1        0.1811
      6 O          18.8568   71.9296   -4.6851 O.3     1  UNL1       -0.3308
      7 O          17.1265   70.8294   -2.4973 O.3     1  UNL1       -0.3794
      8 O          16.6267   69.1233   -4.5652 O.3     1  UNL1       -0.3779
      9 C          18.2530   70.2362   -3.1411 C.3     1  UNL1        0.1713
     10 C          17.8799   69.7756   -4.5347 C.3     1  UNL1        0.1895
     11 C          19.2628   71.3398   -3.4306 C.3     1  UNL1        0.1764
     12 C          17.8774   71.0829   -5.3086 C.3     1  UNL1        0.2383
     13 H          16.4678   70.1438   -2.3021 H       1  UNL1        0.2105
     14 H          16.6796   68.2974   -4.0593 H       1  UNL1        0.2106
     15 O          16.0278   70.4966   -7.3613 O.2     1  UNL1       -0.2464
     16 O          19.3361   70.4116  -10.5689 O.2     1  UNL1       -0.2670
     17 N          18.2279   70.9028   -6.6892 N.ar    1  UNL1       -0.2551
     18 N          17.6766   70.4550   -8.9568 N.ar    1  UNL1       -0.2743
     19 C          17.2231   70.6102   -7.6406 C.ar    1  UNL1        0.3323
     20 C          19.5554   71.0169   -7.0877 C.ar    1  UNL1        0.0869
     21 C          19.9716   70.8647   -8.3466 C.ar    1  UNL1        0.0795
     22 C          18.9849   70.5574   -9.4022 C.ar    1  UNL1        0.2626
     23 H          16.9943   70.2503   -9.6368 H       1  UNL1        0.1734
     24 O          22.9377   72.7878   -2.0724 O.3     1  UNL1       -0.2703
     25 P          22.5830   74.3459   -1.8288 P.3     1  UNL1        0.2208
     26 O          21.1965   74.5420   -2.6391 O.co2   1  UNL1       -0.4371
     27 O          23.6744   75.2955   -2.2301 O.2     1  UNL1       -0.5170
     28 O          22.1614   74.4305   -0.2731 O.3     1  UNL1       -0.2858
     29 O          20.9208   72.4168   -0.1234 O.3     1  UNL1       -0.3258
     30 O          21.1732   73.3366    3.8942 O.3     1  UNL1       -0.3794
     31 O          22.7258   71.1643    2.8367 O.3     1  UNL1       -0.3794
     32 O          20.7854   75.4471    1.9513 O.3     1  UNL1       -0.3775
     33 C          21.6322   73.2708    2.5413 C.3     1  UNL1        0.1715
     34 C          21.6720   71.8007    2.1193 C.3     1  UNL1        0.1694
     35 C          20.6747   74.0602    1.6505 C.3     1  UNL1        0.1967
     36 C          21.8963   71.6643    0.6073 C.3     1  UNL1        0.1761
     37 C          20.9530   73.8157    0.1663 C.3     1  UNL1        0.2704
     38 H          21.7771   72.8378    4.4652 H       1  UNL1        0.2105
     39 H          22.5724   71.2581    3.7900 H       1  UNL1        0.2105
     40 H          20.6067   75.5887    2.8936 H       1  UNL1        0.2106
     41 O          22.9764   69.5365    0.4853 O.3     1  UNL1       -0.3794
     42 C          21.7824   70.2146    0.1408 C.3     1  UNL1        0.1693
     43 H          22.9182   68.6125    0.1948 H       1  UNL1        0.2105
@<TRIPOS>UNITY_ATOM_ATTR
2 1
charge -1
26 1
charge -1
@<TRIPOS>BOND
     1    25    28    1
     2    25    24    1
     3    25    26    1
     4    25    27    2
     5     1     4    1
     6     1    24    1
     7     1     2    1
     8     1     3    2
     9     6    11    1
    10     6    12    1
    11    29    36    1
    12    29    37    1
    13     7     9    1
    14     7    13    1
    15     8    10    1
    16     8    14    1
    17    28    37    1
    18     4     5    1
    19    30    33    1
    20    30    38    1
    21    31    34    1
    22    31    39    1
    23    32    35    1
    24    32    40    1
    25    41    42    1
    26    41    43    1
    27    15    19    2
    28    16    22    2
    29    17    12    1
    30    17    19   ar
    31    17    20   ar
    32    18    19   ar
    33    18    22   ar
    34    18    23    1
    35     9    10    1
    36     9    11    1
    37    10    12    1
    38    11     5    1
    39    33    34    1
    40    33    35    1
    41    34    36    1
    42    35    37    1
    43    36    42    1
    44    20    21   ar
    45    21    22   ar
@<TRIPOS>MOLECULE
*****
 43 45 0 0 0
SMALL
GASTEIGER

@<TRIPOS>ATOM
      1 P          22.3794   71.1409   -2.9216 P.3     1  UNL1        0.2189
      2 O          21.5091   70.0204   -2.1441 O.co2   1  UNL1       -0.4371
      3 O          23.7214   70.6770   -3.4069 O.2     1  UNL1       -0.5170
      4 O          22.3968   72.3964   -1.9011 O.3     1  UNL1       -0.3112
      5 C          22.3302   72.1375   -0.5096 C.3     1  UNL1        0.1811
      6 O          21.0884   72.7491    1.4545 O.3     1  UNL1       -0.3308
      7 O          19.1692   74.1039   -0.4088 O.3     1  UNL1       -0.3794
      8 O          20.6487   76.1890    0.5399 O.3     1  UNL1       -0.3779
      9 C          20.5885   73.9921   -0.5001 C.3     1  UNL1        0.1713
     10 C          21.2540   74.9127    0.5016 C.3     1  UNL1        0.1895
     11 C          20.9853   72.6161    0.0199 C.3     1  UNL1        0.1764
     12 C          21.0797   74.1438    1.8003 C.3     1  UNL1        0.2383
     13 H          18.8919   74.9746   -0.7358 H       1  UNL1        0.2105
     14 H          20.7871   76.6382   -0.3086 H       1  UNL1        0.2106
     15 O          21.9651   72.3035    3.7515 O.2     1  UNL1       -0.2464
     16 O          25.1532   75.2327    5.3315 O.2     1  UNL1       -0.2670
     17 N          22.1397   74.3992    2.7344 N.ar    1  UNL1       -0.2551
     18 N          23.5519   73.7634    4.5365 N.ar    1  UNL1       -0.2743
     19 C          22.5065   73.4083    3.6746 C.ar    1  UNL1        0.3323
     20 C          22.8036   75.6209    2.7121 C.ar    1  UNL1        0.0869
     21 C          23.7977   75.9445    3.5418 C.ar    1  UNL1        0.0795
     22 C          24.2420   74.9651    4.5544 C.ar    1  UNL1        0.2626
     23 H          23.8244   73.0889    5.2003 H       1  UNL1        0.1734
     24 O          21.3761   71.6352   -4.0887 O.3     1  UNL1       -0.2703
     25 P          21.3877   72.9669   -5.0049 P.3     1  UNL1        0.2208
     26 O          22.8277   72.8994   -5.7394 O.co2   1  UNL1       -0.4371
     27 O          21.1385   74.2381   -4.2462 O.2     1  UNL1       -0.5170
     28 O          20.3184   72.6663   -6.1759 O.3     1  UNL1       -0.2858
     29 O          19.1643   70.5967   -6.2158 O.3     1  UNL1       -0.3258
     30 O          18.7167   71.6782  -10.1758 O.3     1  UNL1       -0.3794
     31 O          16.4559   71.7985   -8.4088 O.3     1  UNL1       -0.3794
     32 O          21.2051   72.2258   -8.8017 O.3     1  UNL1       -0.3775
     33 C          18.8184   71.9034   -8.7671 C.3     1  UNL1        0.1715
     34 C          17.6800   71.1489   -8.0775 C.3     1  UNL1        0.1694
     35 C          20.1736   71.3968   -8.2771 C.3     1  UNL1        0.1967
     36 C          17.8755   71.1216   -6.5556 C.3     1  UNL1        0.1761
     37 C          20.2455   71.3636   -6.7494 C.3     1  UNL1        0.2704
     38 H          17.8587   71.9982  -10.4933 H       1  UNL1        0.2105
     39 H          16.3448   71.8094   -9.3725 H       1  UNL1        0.2105
     40 H          21.1489   72.2383   -9.7695 H       1  UNL1        0.2106
     41 O          16.1099   69.5393   -6.8516 O.3     1  UNL1       -0.3794
     42 C          16.8383   70.2416   -5.8614 C.3     1  UNL1        0.1693
     43 H          15.4462   68.9747   -6.4243 H       1  UNL1        0.2105
@<TRIPOS>UNITY_ATOM_ATTR
2 1
charge -1
26 1
charge -1
@<TRIPOS>BOND
     1    25    28    1
     2    25    24    1
     3    25    26    1
     4    25    27    2
     5     1     4    1
     6     1    24    1
     7     1     2    1
     8     1     3    2
     9     6    11    1
    10     6    12    1
    11    29    36    1
    12    29    37    1
    13     7     9    1
    14     7    13    1
    15     8    10    1
    16     8    14    1
    17    28    37    1
    18     4     5    1
    19    30    33    1
    20    30    38    1
    21    31    34    1
    22    31    39    1
    23    32    35    1
    24    32    40    1
    25    41    42    1
    26    41    43    1
    27    15    19    2
    28    16    22    2
    29    17    12    1
    30    17    19   ar
    31    17    20   ar
    32    18    19   ar
    33    18    22   ar
    34    18    23    1
    35     9    10    1
    36     9    11    1
    37    10    12    1
    38    11     5    1
    39    33    34    1
    40    33    35    1
    41    34    36    1
    42    35    37    1
    43    36    42    1
    44    20    21   ar
    45    21    22   ar
@<TRIPOS>MOLECULE
*****
 43 45 0 0 0
SMALL
GASTEIGER

@<TRIPOS>ATOM
      1 P          20.0039   72.5259   -3.8058 P.3     1  UNL1        0.2189
      2 O          19.0430   71.6590   -2.8350 O.co2   1  UNL1       -0.4371
      3 O          20.0387   73.9973   -3.5137 O.2     1  UNL1       -0.5170
      4 O          19.5225   72.1165   -5.2953 O.3     1  UNL1       -0.3112
      5 C          18.2920   71.4297   -5.4432 C.3     1  UNL1        0.1811
      6 O          18.1745   73.3057   -6.9401 O.3     1  UNL1       -0.3308
      7 O          16.1140   71.7343   -8.4486 O.3     1  UNL1       -0.3794
      8 O          18.3591   71.3684   -9.9526 O.3     1  UNL1       -0.3779
      9 C          17.2838   71.2742   -7.7740 C.3     1  UNL1        0.1713
     10 C          18.5226   71.6231   -8.5724 C.3     1  UNL1        0.1895
     11 C          17.4653   72.1197   -6.5196 C.3     1  UNL1        0.1764
     12 C          18.6885   73.1020   -8.2664 C.3     1  UNL1        0.2383
     13 H          15.9771   71.2090   -9.2531 H       1  UNL1        0.2105
     14 H          18.2576   70.4145  -10.0957 H       1  UNL1        0.2106
     15 O          20.8912   71.3342   -8.2965 O.2     1  UNL1       -0.2464
     16 O          23.9141   74.8115   -8.4067 O.2     1  UNL1       -0.2670
     17 N          20.0621   73.5182   -8.3033 N.ar    1  UNL1       -0.2551
     18 N          22.3946   73.0671   -8.3515 N.ar    1  UNL1       -0.2743
     19 C          21.0933   72.5502   -8.3147 C.ar    1  UNL1        0.3323
     20 C          20.3753   74.8729   -8.3281 C.ar    1  UNL1        0.0869
     21 C          21.6215   75.3495   -8.3618 C.ar    1  UNL1        0.0795
     22 C          22.7568   74.4046   -8.3759 C.ar    1  UNL1        0.2626
     23 H          23.1292   72.4113   -8.3597 H       1  UNL1        0.1734
     24 O          21.4305   71.7786   -3.6668 O.3     1  UNL1       -0.2703
     25 P          22.1858   71.1643   -2.3764 P.3     1  UNL1        0.2208
     26 O          23.6321   70.7365   -2.9619 O.co2   1  UNL1       -0.4371
     27 O          21.4391   70.0528   -1.6976 O.2     1  UNL1       -0.5170
     28 O          22.4883   72.4397   -1.4347 O.3     1  UNL1       -0.2858
     29 O          21.3668   72.3304    0.6503 O.3     1  UNL1       -0.3258
     30 O          22.6598   76.2491    0.8012 O.3     1  UNL1       -0.3794
     31 O          23.9137   74.2770    2.4705 O.3     1  UNL1       -0.3794
     32 O          21.7342   75.1294   -1.7026 O.3     1  UNL1       -0.3775
     33 C          22.7446   74.8611    0.4673 C.3     1  UNL1        0.1715
     34 C          22.6964   74.0519    1.7648 C.3     1  UNL1        0.1694
     35 C          21.5716   74.4933   -0.4395 C.3     1  UNL1        0.1967
     36 C          22.5140   72.5554    1.4780 C.3     1  UNL1        0.1761
     37 C          21.4505   72.9791   -0.6202 C.3     1  UNL1        0.2704
     38 H          23.4020   76.4893    1.3765 H       1  UNL1        0.2105
     39 H          24.0170   75.2257    2.6449 H       1  UNL1        0.2105
     40 H          21.8093   76.0875   -1.5747 H       1  UNL1        0.2106
     41 O          20.9494   71.8662    3.1471 O.3     1  UNL1       -0.3794
     42 C          22.3056   71.7489    2.7580 C.3     1  UNL1        0.1693
     43 H          20.8019   71.3576    3.9604 H       1  UNL1        0.2105
@<TRIPOS>UNITY_ATOM_ATTR
2 1
charge -1
26 1
charge -1
@<TRIPOS>BOND
     1    25    28    1
     2    25    24    1
     3    25    26    1
     4    25    27    2
     5     1     4    1
     6     1    24    1
     7     1     2    1
     8     1     3    2
     9     6    11    1
    10     6    12    1
    11    29    36    1
    12    29    37    1
    13     7     9    1
    14     7    13    1
    15     8    10    1
    16     8    14    1
    17    28    37    1
    18     4     5    1
    19    30    33    1
    20    30    38    1
    21    31    34    1
    22    31    39    1
    23    32    35    1
    24    32    40    1
    25    41    42    1
    26    41    43    1
    27    15    19    2
    28    16    22    2
    29    17    12    1
    30    17    19   ar
    31    17    20   ar
    32    18    19   ar
    33    18    22   ar
    34    18    23    1
    35     9    10    1
    36     9    11    1
    37    10    12    1
    38    11     5    1
    39    33    34    1
    40    33    35    1
    41    34    36    1
    42    35    37    1
    43    36    42    1
    44    20    21   ar
    45    21    22   ar
@<TRIPOS>MOLECULE
*****
 43 45 0 0 0
SMALL
GASTEIGER

@<TRIPOS>ATOM
      1 P          21.5455   72.9304   -6.1119 P.3     1  UNL1        0.2189
      2 O          21.2925   74.4418   -5.5930 O.co2   1  UNL1       -0.4371
      3 O          22.7282   72.7616   -7.0196 O.2     1  UNL1       -0.5170
      4 O          20.1170   72.4875   -6.7294 O.3     1  UNL1       -0.3112
      5 C          19.7409   71.1235   -6.6526 C.3     1  UNL1        0.1811
      6 O          17.5473   70.8629   -7.5982 O.3     1  UNL1       -0.3308
      7 O          18.8891   71.0041  -10.2759 O.3     1  UNL1       -0.3794
      8 O          17.8727   73.5181   -9.9871 O.3     1  UNL1       -0.3779
      9 C          19.2035   71.7009   -9.0714 C.3     1  UNL1        0.1713
     10 C          18.1864   72.7934   -8.8153 C.3     1  UNL1        0.1895
     11 C          18.9550   70.7548   -7.9034 C.3     1  UNL1        0.1764
     12 C          17.0032   72.0036   -8.2819 C.3     1  UNL1        0.2383
     13 H          19.0404   71.5882  -11.0361 H       1  UNL1        0.2105
     14 H          18.6571   74.0034  -10.2870 H       1  UNL1        0.2106
     15 O          15.0143   73.8589   -9.0435 O.2     1  UNL1       -0.2464
     16 O          14.0153   74.8656   -4.6584 O.2     1  UNL1       -0.2670
     17 N          16.2078   72.7643   -7.3599 N.ar    1  UNL1       -0.2551
     18 N          14.5183   74.3586   -6.8594 N.ar    1  UNL1       -0.2743
     19 C          15.2363   73.6702   -7.8457 C.ar    1  UNL1        0.3323
     20 C          16.3946   72.6081   -5.9908 C.ar    1  UNL1        0.0869
     21 C          15.7026   73.2730   -5.0633 C.ar    1  UNL1        0.0795
     22 C          14.6683   74.2388   -5.4869 C.ar    1  UNL1        0.2626
     23 H          13.8364   74.9953   -7.1744 H       1  UNL1        0.1734
     24 O          21.6257   72.0830   -4.7377 O.3     1  UNL1       -0.2703
     25 P          22.6300   72.1985   -3.4764 P.3     1  UNL1        0.2208
     26 O          23.9078   72.9786   -4.0898 O.co2   1  UNL1       -0.4371
     27 O          22.9590   70.8843   -2.8294 O.2     1  UNL1       -0.5170
     28 O          21.9305   73.2712   -2.4940 O.3     1  UNL1       -0.2858
     29 O          19.7738   72.3888   -2.0622 O.3     1  UNL1       -0.3258
     30 O          22.0625   69.3807   -0.3995 O.3     1  UNL1       -0.3794
     31 O          20.6945   68.9146   -2.8813 O.3     1  UNL1       -0.3794
     32 O          22.8737   72.1437   -0.1036 O.3     1  UNL1       -0.3775
     33 C          21.7491   70.4103   -1.3414 C.3     1  UNL1        0.1715
     34 C          20.4410   70.0376   -2.0418 C.3     1  UNL1        0.1694
     35 C          21.6027   71.7376   -0.5997 C.3     1  UNL1        0.1967
     36 C          19.9014   71.2122   -2.8691 C.3     1  UNL1        0.1761
     37 C          21.0126   72.8252   -1.4992 C.3     1  UNL1        0.2704
     38 H          22.1573   68.5353   -0.8641 H       1  UNL1        0.2105
     39 H          21.0352   68.1801   -2.3468 H       1  UNL1        0.2105
     40 H          23.2365   71.4469    0.4646 H       1  UNL1        0.2106
     41 O          17.9435   69.8513   -2.7153 O.3     1  UNL1       -0.3794
     42 C          18.5197   70.9166   -3.4484 C.3     1  UNL1        0.1693
     43 H          17.0635   69.6524   -3.0728 H       1  UNL1        0.2105
@<TRIPOS>UNITY_ATOM_ATTR
2 1
charge -1
26 1
charge -1
@<TRIPOS>BOND
     1    25    28    1
     2    25    24    1
     3    25    26    1
     4    25    27    2
     5     1     4    1
     6     1    24    1
     7     1     2    1
     8     1     3    2
     9     6    11    1
    10     6    12    1
    11    29    36    1
    12    29    37    1
    13     7     9    1
    14     7    13    1
    15     8    10    1
    16     8    14    1
    17    28    37    1
    18     4     5    1
    19    30    33    1
    20    30    38    1
    21    31    34    1
    22    31    39    1
    23    32    35    1
    24    32    40    1
    25    41    42    1
    26    41    43    1
    27    15    19    2
    28    16    22    2
    29    17    12    1
    30    17    19   ar
    31    17    20   ar
    32    18    19   ar
    33    18    22   ar
    34    18    23    1
    35     9    10    1
    36     9    11    1
    37    10    12    1
    38    11     5    1
    39    33    34    1
    40    33    35    1
    41    34    36    1
    42    35    37    1
    43    36    42    1
    44    20    21   ar
    45    21    22   ar
@<TRIPOS>MOLECULE
*****
 43 45 0 0 0
SMALL
GASTEIGER

@<TRIPOS>ATOM
      1 P          19.4255   75.2435   -2.6182 P.3     1  UNL1        0.2189
      2 O          19.7473   75.5319   -1.0592 O.co2   1  UNL1       -0.4371
      3 O          18.5567   76.2684   -3.2862 O.2     1  UNL1       -0.5170
      4 O          18.8565   73.7289   -2.6237 O.3     1  UNL1       -0.3112
      5 C          18.0126   73.3275   -3.6888 C.3     1  UNL1        0.1811
      6 O          17.1064   71.3503   -4.7103 O.3     1  UNL1       -0.3308
      7 O          18.1057   69.8734   -2.2998 O.3     1  UNL1       -0.3794
      8 O          20.0071   69.3111   -4.1719 O.3     1  UNL1       -0.3779
      9 C          18.6909   70.9776   -2.9881 C.3     1  UNL1        0.1713
     10 C          19.2886   70.5208   -4.3025 C.3     1  UNL1        0.1895
     11 C          17.5639   71.8920   -3.4519 C.3     1  UNL1        0.1764
     12 C          18.0545   70.3764   -5.1766 C.3     1  UNL1        0.2383
     13 H          18.8062   69.2755   -1.9937 H       1  UNL1        0.2105
     14 H          20.7826   69.4547   -3.6073 H       1  UNL1        0.2106
     15 O          16.1648   70.1025   -7.2580 O.2     1  UNL1       -0.2464
     16 O          19.2369   71.3504  -10.4589 O.2     1  UNL1       -0.2670
     17 N          18.3334   70.6237   -6.5631 N.ar    1  UNL1       -0.2551
     18 N          17.6960   70.7243   -8.8500 N.ar    1  UNL1       -0.2743
     19 C          17.3142   70.4558   -7.5294 C.ar    1  UNL1        0.3323
     20 C          19.6056   71.0282   -6.9527 C.ar    1  UNL1        0.0869
     21 C          19.9538   71.2789   -8.2164 C.ar    1  UNL1        0.0795
     22 C          18.9477   71.1275   -9.2873 C.ar    1  UNL1        0.2626
     23 H          17.0025   70.6136   -9.5404 H       1  UNL1        0.1734
     24 O          20.8963   75.0814   -3.2690 O.3     1  UNL1       -0.2703
     25 P          21.8593   73.7905   -3.4078 P.3     1  UNL1        0.2208
     26 O          23.3449   74.4304   -3.3732 O.co2   1  UNL1       -0.4371
     27 O          21.5790   72.9405   -4.6131 O.2     1  UNL1       -0.5170
     28 O          21.7147   73.0194   -1.9973 O.3     1  UNL1       -0.2858
     29 O          23.3253   73.1493   -0.2636 O.3     1  UNL1       -0.3258
     30 O          21.7078   69.4528    0.6141 O.3     1  UNL1       -0.3794
     31 O          21.1229   71.6953    2.3102 O.3     1  UNL1       -0.3794
     32 O          22.0924   70.2426   -2.1442 O.3     1  UNL1       -0.3775
     33 C          21.6883   70.8094    0.1617 C.3     1  UNL1        0.1715
     34 C          22.1426   71.7061    1.3150 C.3     1  UNL1        0.1694
     35 C          22.6302   70.9509   -1.0326 C.3     1  UNL1        0.1967
     36 C          22.4035   73.1394    0.8327 C.3     1  UNL1        0.1761
     37 C          22.8603   72.4180   -1.3997 C.3     1  UNL1        0.2704
     38 H          21.1114   69.3560    1.3720 H       1  UNL1        0.2105
     39 H          20.9676   70.7845    2.6059 H       1  UNL1        0.2105
     40 H          21.9516   69.3153   -1.8991 H       1  UNL1        0.2106
     41 O          22.7383   73.4078    3.1832 O.3     1  UNL1       -0.3794
     42 C          23.0075   74.0115    1.9313 C.3     1  UNL1        0.1693
     43 H          23.1172   73.9517    3.8919 H       1  UNL1        0.2105
@<TRIPOS>UNITY_ATOM_ATTR
2 1
charge -1
26 1
charge -1
@<TRIPOS>BOND
     1    25    28    1
     2    25    24    1
     3    25    26    1
     4    25    27    2
     5     1     4    1
     6     1    24    1
     7     1     2    1
     8     1     3    2
     9     6    11    1
    10     6    12    1
    11    29    36    1
    12    29    37    1
    13     7     9    1
    14     7    13    1
    15     8    10    1
    16     8    14    1
    17    28    37    1
    18     4     5    1
    19    30    33    1
    20    30    38    1
    21    31    34    1
    22    31    39    1
    23    32    35    1
    24    32    40    1
    25    41    42    1
    26    41    43    1
    27    15    19    2
    28    16    22    2
    29    17    12    1
    30    17    19   ar
    31    17    20   ar
    32    18    19   ar
    33    18    22   ar
    34    18    23    1
    35     9    10    1
    36     9    11    1
    37    10    12    1
    38    11     5    1
    39    33    34    1
    40    33    35    1
    41    34    36    1
    42    35    37    1
    43    36    42    1
    44    20    21   ar
    45    21    22   ar
@<TRIPOS>MOLECULE
*****
 43 45 0 0 0
SMALL
GASTEIGER

@<TRIPOS>ATOM
      1 P          22.5302   72.0839   -3.2115 P.3     1  UNL1        0.2189
      2 O          21.5759   73.2464   -2.6154 O.co2   1  UNL1       -0.4371
      3 O          23.6622   72.5703   -4.0678 O.2     1  UNL1       -0.5170
      4 O          21.4982   71.0621   -3.9250 O.3     1  UNL1       -0.3112
      5 C          20.3067   71.5859   -4.4849 C.3     1  UNL1        0.1811
      6 O          18.0345   72.1310   -3.9247 O.3     1  UNL1       -0.3308
      7 O          17.9780   69.5342   -2.4266 O.3     1  UNL1       -0.3794
      8 O          16.6843   68.9112   -4.7450 O.3     1  UNL1       -0.3779
      9 C          18.6384   69.8560   -3.6496 C.3     1  UNL1        0.1713
     10 C          17.6342   69.9568   -4.7787 C.3     1  UNL1        0.1895
     11 C          19.1454   71.2891   -3.5460 C.3     1  UNL1        0.1764
     12 C          17.0125   71.3199   -4.5268 C.3     1  UNL1        0.2383
     13 H          17.6457   68.6232   -2.4688 H       1  UNL1        0.2105
     14 H          17.1285   68.0651   -4.9107 H       1  UNL1        0.2106
     15 O          17.7599   70.4966   -7.1232 O.2     1  UNL1       -0.2464
     16 O          15.2496   73.8192   -9.0979 O.2     1  UNL1       -0.2670
     17 N          16.5686   71.9516   -5.7373 N.ar    1  UNL1       -0.2551
     18 N          16.5092   72.1516   -8.1043 N.ar    1  UNL1       -0.2743
     19 C          17.0035   71.4609   -6.9905 C.ar    1  UNL1        0.3323
     20 C          15.7115   73.0449   -5.6744 C.ar    1  UNL1        0.0869
     21 C          15.2502   73.6932   -6.7459 C.ar    1  UNL1        0.0795
     22 C          15.6565   73.2440   -8.0932 C.ar    1  UNL1        0.2626
     23 H          16.7990   71.8277   -8.9880 H       1  UNL1        0.1734
     24 O          22.9867   71.2746   -1.8888 O.3     1  UNL1       -0.2703
     25 P          22.1290   70.4178   -0.8197 P.3     1  UNL1        0.2208
     26 O          23.2664   69.6671    0.0522 O.co2   1  UNL1       -0.4371
     27 O          21.1159   69.4987   -1.4385 O.2     1  UNL1       -0.5170
     28 O          21.5080   71.5198    0.1828 O.3     1  UNL1       -0.2858
     29 O          21.9502   73.8134    0.5833 O.3     1  UNL1       -0.3258
     30 O          21.5444   72.5283    4.4865 O.3     1  UNL1       -0.3794
     31 O          19.4786   74.1322    3.2997 O.3     1  UNL1       -0.3794
     32 O          22.8691   70.8425    2.5416 O.3     1  UNL1       -0.3775
     33 C          21.2589   72.5492    3.0853 C.3     1  UNL1        0.1715
     34 C          20.7662   73.9501    2.7171 C.3     1  UNL1        0.1694
     35 C          22.5304   72.2059    2.3116 C.3     1  UNL1        0.1967
     36 C          20.6940   74.1296    1.1947 C.3     1  UNL1        0.1761
     37 C          22.3674   72.4662    0.8130 C.3     1  UNL1        0.2704
     38 H          20.7410   72.7450    4.9835 H       1  UNL1        0.2105
     39 H          19.5380   74.0157    4.2610 H       1  UNL1        0.2105
     40 H          22.9698   70.6907    3.4938 H       1  UNL1        0.2106
     41 O          19.0045   75.8183    1.1390 O.3     1  UNL1       -0.3794
     42 C          20.3568   75.5668    0.8036 C.3     1  UNL1        0.1693
     43 H          18.7759   76.7295    0.8960 H       1  UNL1        0.2105
@<TRIPOS>UNITY_ATOM_ATTR
2 1
charge -1
26 1
charge -1
@<TRIPOS>BOND
     1    25    28    1
     2    25    24    1
     3    25    26    1
     4    25    27    2
     5     1     4    1
     6     1    24    1
     7     1     2    1
     8     1     3    2
     9     6    11    1
    10     6    12    1
    11    29    36    1
    12    29    37    1
    13     7     9    1
    14     7    13    1
    15     8    10    1
    16     8    14    1
    17    28    37    1
    18     4     5    1
    19    30    33    1
    20    30    38    1
    21    31    34    1
    22    31    39    1
    23    32    35    1
    24    32    40    1
    25    41    42    1
    26    41    43    1
    27    15    19    2
    28    16    22    2
    29    17    12    1
    30    17    19   ar
    31    17    20   ar
    32    18    19   ar
    33    18    22   ar
    34    18    23    1
    35     9    10    1
    36     9    11    1
    37    10    12    1
    38    11     5    1
    39    33    34    1
    40    33    35    1
    41    34    36    1
    42    35    37    1
    43    36    42    1
    44    20    21   ar
    45    21    22   ar
@<TRIPOS>MOLECULE
*****
 43 45 0 0 0
SMALL
GASTEIGER

@<TRIPOS>ATOM
      1 P          22.7691   71.5483   -2.8845 P.3     1  UNL1        0.2189
      2 O          23.4278   72.9195   -3.4351 O.co2   1  UNL1       -0.4371
      3 O          23.4719   70.2924   -3.3092 O.2     1  UNL1       -0.5170
      4 O          21.2141   71.6636   -3.3163 O.3     1  UNL1       -0.3112
      5 C          20.5130   70.4760   -3.6420 C.3     1  UNL1        0.1811
      6 O          18.7660   72.0903   -3.9823 O.3     1  UNL1       -0.3308
      7 O          16.8651   69.7728   -3.9000 O.3     1  UNL1       -0.3794
      8 O          17.0919   70.2608   -6.5734 O.3     1  UNL1       -0.3779
      9 C          18.1831   69.8397   -4.4419 C.3     1  UNL1        0.1713
     10 C          18.1782   70.6159   -5.7423 C.3     1  UNL1        0.1895
     11 C          19.0170   70.7391   -3.5379 C.3     1  UNL1        0.1764
     12 C          18.0944   72.0515   -5.2521 C.3     1  UNL1        0.2383
     13 H          16.3138   69.2035   -4.4603 H       1  UNL1        0.2105
     14 H          17.1910   69.3392   -6.8591 H       1  UNL1        0.2106
     15 O          20.0521   71.3298   -7.1559 O.2     1  UNL1       -0.2464
     16 O          20.4836   75.6751   -8.6301 O.2     1  UNL1       -0.2670
     17 N          18.7348   72.9739   -6.1467 N.ar    1  UNL1       -0.2551
     18 N          20.2652   73.4939   -7.8885 N.ar    1  UNL1       -0.2743
     19 C          19.7057   72.5093   -7.0643 C.ar    1  UNL1        0.3323
     20 C          18.3984   74.3227   -6.1089 C.ar    1  UNL1        0.0869
     21 C          18.9422   75.2493   -6.9008 C.ar    1  UNL1        0.0795
     22 C          19.9648   74.8469   -7.8878 C.ar    1  UNL1        0.2626
     23 H          20.9442   73.1936   -8.5355 H       1  UNL1        0.1734
     24 O          22.7208   71.7845   -1.2861 O.3     1  UNL1       -0.2703
     25 P          22.3981   70.7673   -0.0720 P.3     1  UNL1        0.2208
     26 O          23.6838   69.7853   -0.0590 O.co2   1  UNL1       -0.4371
     27 O          21.0798   70.0599   -0.1958 O.2     1  UNL1       -0.5170
     28 O          22.5547   71.6614    1.2626 O.3     1  UNL1       -0.2858
     29 O          21.6354   72.3019    3.3510 O.3     1  UNL1       -0.3258
     30 O          20.9178   75.7674    1.2235 O.3     1  UNL1       -0.3794
     31 O          22.9697   75.7362    3.2327 O.3     1  UNL1       -0.3794
     32 O          20.6138   73.1931   -0.0648 O.3     1  UNL1       -0.3775
     33 C          21.6477   74.5959    1.5979 C.3     1  UNL1        0.1715
     34 C          21.9990   74.7039    3.0830 C.3     1  UNL1        0.1694
     35 C          20.7821   73.3643    1.3383 C.3     1  UNL1        0.1967
     36 C          22.5454   73.3746    3.6211 C.3     1  UNL1        0.1761
     37 C          21.3917   72.1050    1.9568 C.3     1  UNL1        0.2704
     38 H          21.4620   76.5530    1.3854 H       1  UNL1        0.2105
     39 H          22.6124   76.5700    2.8887 H       1  UNL1        0.2105
     40 H          20.2269   73.9969   -0.4444 H       1  UNL1        0.2106
     41 O          23.9497   74.1205    5.4045 O.3     1  UNL1       -0.3794
     42 C          22.7542   73.4123    5.1334 C.3     1  UNL1        0.1693
     43 H          24.0953   74.1528    6.3634 H       1  UNL1        0.2105
@<TRIPOS>UNITY_ATOM_ATTR
2 1
charge -1
26 1
charge -1
@<TRIPOS>BOND
     1    25    28    1
     2    25    24    1
     3    25    26    1
     4    25    27    2
     5     1     4    1
     6     1    24    1
     7     1     2    1
     8     1     3    2
     9     6    11    1
    10     6    12    1
    11    29    36    1
    12    29    37    1
    13     7     9    1
    14     7    13    1
    15     8    10    1
    16     8    14    1
    17    28    37    1
    18     4     5    1
    19    30    33    1
    20    30    38    1
    21    31    34    1
    22    31    39    1
    23    32    35    1
    24    32    40    1
    25    41    42    1
    26    41    43    1
    27    15    19    2
    28    16    22    2
    29    17    12    1
    30    17    19   ar
    31    17    20   ar
    32    18    19   ar
    33    18    22   ar
    34    18    23    1
    35     9    10    1
    36     9    11    1
    37    10    12    1
    38    11     5    1
    39    33    34    1
    40    33    35    1
    41    34    36    1
    42    35    37    1
    43    36    42    1
    44    20    21   ar
    45    21    22   ar
@<TRIPOS>MOLECULE
*****
 43 45 0 0 0
SMALL
GASTEIGER

@<TRIPOS>ATOM
      1 P          22.7692   72.0257   -3.2764 P.3     1  UNL1        0.2189
      2 O          23.1203   70.6004   -2.5962 O.co2   1  UNL1       -0.4371
      3 O          23.9163   72.6938   -3.9759 O.2     1  UNL1       -0.5170
      4 O          22.0891   72.8717   -2.0765 O.3     1  UNL1       -0.3112
      5 C          22.1219   72.3329   -0.7664 C.3     1  UNL1        0.1811
      6 O          21.0772   72.6205    1.3783 O.3     1  UNL1       -0.3308
      7 O          18.9938   74.2265   -0.0608 O.3     1  UNL1       -0.3794
      8 O          20.5667   76.1555    1.0535 O.3     1  UNL1       -0.3779
      9 C          20.3973   74.1452   -0.3035 C.3     1  UNL1        0.1713
     10 C          21.1599   74.9069    0.7604 C.3     1  UNL1        0.1895
     11 C          20.8362   72.7097   -0.0431 C.3     1  UNL1        0.1764
     12 C          21.1079   73.9448    1.9350 C.3     1  UNL1        0.2383
     13 H          18.6902   75.1343   -0.2209 H       1  UNL1        0.2105
     14 H          20.6248   76.7319    0.2755 H       1  UNL1        0.2106
     15 O          21.1380   73.2321    4.6680 O.2     1  UNL1       -0.2464
     16 O          25.5604   74.4467    5.1244 O.2     1  UNL1       -0.2670
     17 N          22.2538   74.0641    2.7918 N.ar    1  UNL1       -0.2551
     18 N          23.3400   73.8373    4.8930 N.ar    1  UNL1       -0.2743
     19 C          22.1633   73.6792    4.1498 C.ar    1  UNL1        0.3323
     20 C          23.4505   74.5577    2.2838 C.ar    1  UNL1        0.0869
     21 C          24.5633   74.7034    3.0061 C.ar    1  UNL1        0.0795
     22 C          24.5535   74.3245    4.4337 C.ar    1  UNL1        0.2626
     23 H          23.3006   73.5760    5.8416 H       1  UNL1        0.1734
     24 O          21.5127   71.6736   -4.2303 O.3     1  UNL1       -0.2703
     25 P          20.1741   70.8125   -3.9480 P.3     1  UNL1        0.2208
     26 O          19.2770   71.8078   -3.0412 O.co2   1  UNL1       -0.4371
     27 O          20.4262   69.4685   -3.3283 O.2     1  UNL1       -0.5170
     28 O          19.4138   70.7610   -5.3708 O.3     1  UNL1       -0.2858
     29 O          19.7072   72.5002   -6.9538 O.3     1  UNL1       -0.3258
     30 O          16.0968   71.0004   -8.2829 O.3     1  UNL1       -0.3794
     31 O          18.4800   70.5227   -9.8126 O.3     1  UNL1       -0.3794
     32 O          16.6369   71.1594   -5.4434 O.3     1  UNL1       -0.3775
     33 C          17.4070   70.9295   -7.7140 C.3     1  UNL1        0.1715
     34 C          18.4062   71.4615   -8.7433 C.3     1  UNL1        0.1694
     35 C          17.4451   71.7736   -6.4415 C.3     1  UNL1        0.1967
     36 C          19.7915   71.6668   -8.1158 C.3     1  UNL1        0.1761
     37 C          18.8743   71.9569   -5.9277 C.3     1  UNL1        0.2704
     38 H          16.0657   70.4661   -9.0910 H       1  UNL1        0.2105
     39 H          17.5988   70.4018  -10.1997 H       1  UNL1        0.2105
     40 H          15.7347   71.0492   -5.7807 H       1  UNL1        0.2106
     41 O          21.9592   72.6355   -8.3839 O.3     1  UNL1       -0.3794
     42 C          20.7619   72.3441   -9.0810 C.3     1  UNL1        0.1693
     43 H          22.5864   73.0666   -8.9859 H       1  UNL1        0.2105
@<TRIPOS>UNITY_ATOM_ATTR
2 1
charge -1
26 1
charge -1
@<TRIPOS>BOND
     1    25    28    1
     2    25    24    1
     3    25    26    1
     4    25    27    2
     5     1     4    1
     6     1    24    1
     7     1     2    1
     8     1     3    2
     9     6    11    1
    10     6    12    1
    11    29    36    1
    12    29    37    1
    13     7     9    1
    14     7    13    1
    15     8    10    1
    16     8    14    1
    17    28    37    1
    18     4     5    1
    19    30    33    1
    20    30    38    1
    21    31    34    1
    22    31    39    1
    23    32    35    1
    24    32    40    1
    25    41    42    1
    26    41    43    1
    27    15    19    2
    28    16    22    2
    29    17    12    1
    30    17    19   ar
    31    17    20   ar
    32    18    19   ar
    33    18    22   ar
    34    18    23    1
    35     9    10    1
    36     9    11    1
    37    10    12    1
    38    11     5    1
    39    33    34    1
    40    33    35    1
    41    34    36    1
    42    35    37    1
    43    36    42    1
    44    20    21   ar
    45    21    22   ar
@<TRIPOS>MOLECULE
*****
 43 45 0 0 0
SMALL
GASTEIGER

@<TRIPOS>ATOM
      1 P          22.2386   73.7319   -5.8450 P.3     1  UNL1        0.2189
      2 O          23.0259   75.1392   -5.9753 O.co2   1  UNL1       -0.4371
      3 O          22.5095   72.7498   -6.9466 O.2     1  UNL1       -0.5170
      4 O          20.6919   74.1681   -5.6573 O.3     1  UNL1       -0.3112
      5 C          20.0345   73.8251   -4.4498 C.3     1  UNL1        0.1811
      6 O          18.1969   74.0505   -5.9815 O.3     1  UNL1       -0.3308
      7 O          16.4123   73.7993   -3.5851 O.3     1  UNL1       -0.3794
      8 O          16.3035   71.3005   -4.6717 O.3     1  UNL1       -0.3779
      9 C          17.6537   73.1512   -3.8574 C.3     1  UNL1        0.1713
     10 C          17.4651   72.0714   -4.9024 C.3     1  UNL1        0.1895
     11 C          18.5519   74.1442   -4.5845 C.3     1  UNL1        0.1764
     12 C          17.3827   72.8838   -6.1835 C.3     1  UNL1        0.2383
     13 H          15.8220   73.1848   -3.1205 H       1  UNL1        0.2105
     14 H          16.4047   70.8023   -3.8457 H       1  UNL1        0.2106
     15 O          16.1147   70.6279   -7.3154 O.2     1  UNL1       -0.2464
     16 O          19.3680   70.1945  -10.5510 O.2     1  UNL1       -0.2670
     17 N          17.8763   72.1622   -7.3224 N.ar    1  UNL1       -0.2551
     18 N          17.7356   70.4140   -8.9257 N.ar    1  UNL1       -0.2743
     19 C          17.1644   71.0421   -7.8115 C.ar    1  UNL1        0.3323
     20 C          19.0536   72.5668   -7.9421 C.ar    1  UNL1        0.0869
     21 C          19.5856   71.9562   -9.0030 C.ar    1  UNL1        0.0795
     22 C          18.9041   70.7776   -9.5761 C.ar    1  UNL1        0.2626
     23 H          17.2573   69.6311   -9.2836 H       1  UNL1        0.1734
     24 O          22.6531   73.2188   -4.3693 O.3     1  UNL1       -0.2703
     25 P          23.5832   73.8944   -3.2329 P.3     1  UNL1        0.2208
     26 O          22.8206   75.2835   -2.9068 O.co2   1  UNL1       -0.4371
     27 O          25.0216   74.0563   -3.6311 O.2     1  UNL1       -0.5170
     28 O          23.3509   72.9840   -1.9205 O.3     1  UNL1       -0.2858
     29 O          21.1862   72.0333   -1.7561 O.3     1  UNL1       -0.3258
     30 O          22.5050   71.3413    2.0952 O.3     1  UNL1       -0.3794
     31 O          22.2726   69.1446    0.2599 O.3     1  UNL1       -0.3794
     32 O          23.1930   73.8135    0.7557 O.3     1  UNL1       -0.3775
     33 C          22.6355   71.4717    0.6770 C.3     1  UNL1        0.1715
     34 C          21.7242   70.4367    0.0144 C.3     1  UNL1        0.1694
     35 C          22.2303   72.8861    0.2664 C.3     1  UNL1        0.1967
     36 C          21.6051   70.6887   -1.4947 C.3     1  UNL1        0.1761
     37 C          22.0928   73.0160   -1.2516 C.3     1  UNL1        0.2704
     38 H          22.7613   70.4456    2.3626 H       1  UNL1        0.2105
     39 H          22.3430   68.9983    1.2163 H       1  UNL1        0.2105
     40 H          23.2706   73.7216    1.7177 H       1  UNL1        0.2106
     41 O          21.1847   69.1401   -3.2650 O.3     1  UNL1       -0.3794
     42 C          20.5788   69.7666   -2.1493 C.3     1  UNL1        0.1693
     43 H          20.5432   68.5499   -3.6914 H       1  UNL1        0.2105
@<TRIPOS>UNITY_ATOM_ATTR
2 1
charge -1
26 1
charge -1
@<TRIPOS>BOND
     1    25    28    1
     2    25    24    1
     3    25    26    1
     4    25    27    2
     5     1     4    1
     6     1    24    1
     7     1     2    1
     8     1     3    2
     9     6    11    1
    10     6    12    1
    11    29    36    1
    12    29    37    1
    13     7     9    1
    14     7    13    1
    15     8    10    1
    16     8    14    1
    17    28    37    1
    18     4     5    1
    19    30    33    1
    20    30    38    1
    21    31    34    1
    22    31    39    1
    23    32    35    1
    24    32    40    1
    25    41    42    1
    26    41    43    1
    27    15    19    2
    28    16    22    2
    29    17    12    1
    30    17    19   ar
    31    17    20   ar
    32    18    19   ar
    33    18    22   ar
    34    18    23    1
    35     9    10    1
    36     9    11    1
    37    10    12    1
    38    11     5    1
    39    33    34    1
    40    33    35    1
    41    34    36    1
    42    35    37    1
    43    36    42    1
    44    20    21   ar
    45    21    22   ar
@<TRIPOS>MOLECULE
*****
 43 45 0 0 0
SMALL
GASTEIGER

@<TRIPOS>ATOM
      1 P          23.0436   72.4085   -3.5458 P.3     1  UNL1        0.2189
      2 O          23.3862   70.9159   -3.0242 O.co2   1  UNL1       -0.4371
      3 O          24.1952   73.1427   -4.1672 O.2     1  UNL1       -0.5170
      4 O          22.3657   73.1226   -2.2619 O.3     1  UNL1       -0.3112
      5 C          22.3247   72.4122   -1.0365 C.3     1  UNL1        0.1811
      6 O          21.1872   72.5446    1.0760 O.3     1  UNL1       -0.3308
      7 O          19.0746   74.1043   -0.3713 O.3     1  UNL1       -0.3794
      8 O          20.4983   76.0593    0.8888 O.3     1  UNL1       -0.3779
      9 C          20.4885   74.1082   -0.5619 C.3     1  UNL1        0.1713
     10 C          21.1688   74.8585    0.5641 C.3     1  UNL1        0.1895
     11 C          20.9946   72.6870   -0.3484 C.3     1  UNL1        0.1764
     12 C          21.1255   73.8414    1.6918 C.3     1  UNL1        0.2383
     13 H          18.7284   75.0014   -0.5028 H       1  UNL1        0.2105
     14 H          20.5540   76.6734    0.1402 H       1  UNL1        0.2106
     15 O          21.0840   73.0290    4.3967 O.2     1  UNL1       -0.2464
     16 O          25.4237   74.4259    5.0732 O.2     1  UNL1       -0.2670
     17 N          22.2307   73.9806    2.5976 N.ar    1  UNL1       -0.2551
     18 N          23.2449   73.7250    4.7313 N.ar    1  UNL1       -0.2743
     19 C          22.1064   73.5414    3.9363 C.ar    1  UNL1        0.3323
     20 C          23.4216   74.5469    2.1559 C.ar    1  UNL1        0.0869
     21 C          24.4977   74.7161    2.9270 C.ar    1  UNL1        0.0795
     22 C          24.4509   74.2839    4.3387 C.ar    1  UNL1        0.2626
     23 H          23.1814   73.4269    5.6677 H       1  UNL1        0.1734
     24 O          21.7868   72.1687   -4.5338 O.3     1  UNL1       -0.2703
     25 P          21.1585   73.0987   -5.6971 P.3     1  UNL1        0.2208
     26 O          22.0668   72.7429   -6.9878 O.co2   1  UNL1       -0.4371
     27 O          21.1104   74.5604   -5.3577 O.2     1  UNL1       -0.5170
     28 O          19.7206   72.4385   -6.0159 O.3     1  UNL1       -0.2858
     29 O          19.9967   70.1194   -5.6131 O.3     1  UNL1       -0.3258
     30 O          16.0276   70.1233   -6.7519 O.3     1  UNL1       -0.3794
     31 O          16.7114   69.6962   -3.9954 O.3     1  UNL1       -0.3794
     32 O          17.9143   71.8668   -8.0861 O.3     1  UNL1       -0.3775
     33 C          17.2063   70.6468   -6.1337 C.3     1  UNL1        0.1715
     34 C          17.6615   69.6601   -5.0567 C.3     1  UNL1        0.1694
     35 C          18.2907   70.8222   -7.1952 C.3     1  UNL1        0.1967
     36 C          19.0599   70.0165   -4.5344 C.3     1  UNL1        0.1761
     37 C          19.6520   71.1259   -6.5670 C.3     1  UNL1        0.2704
     38 H          15.3349   70.0100   -6.0834 H       1  UNL1        0.2105
     39 H          15.8327   69.4698   -4.3387 H       1  UNL1        0.2105
     40 H          17.0512   71.6626   -8.4774 H       1  UNL1        0.2106
     41 O          20.9637   69.2352   -3.3203 O.3     1  UNL1       -0.3794
     42 C          19.5989   68.9578   -3.5749 C.3     1  UNL1        0.1693
     43 H          21.3200   68.5695   -2.7108 H       1  UNL1        0.2105
@<TRIPOS>UNITY_ATOM_ATTR
2 1
charge -1
26 1
charge -1
@<TRIPOS>BOND
     1    25    28    1
     2    25    24    1
     3    25    26    1
     4    25    27    2
     5     1     4    1
     6     1    24    1
     7     1     2    1
     8     1     3    2
     9     6    11    1
    10     6    12    1
    11    29    36    1
    12    29    37    1
    13     7     9    1
    14     7    13    1
    15     8    10    1
    16     8    14    1
    17    28    37    1
    18     4     5    1
    19    30    33    1
    20    30    38    1
    21    31    34    1
    22    31    39    1
    23    32    35    1
    24    32    40    1
    25    41    42    1
    26    41    43    1
    27    15    19    2
    28    16    22    2
    29    17    12    1
    30    17    19   ar
    31    17    20   ar
    32    18    19   ar
    33    18    22   ar
    34    18    23    1
    35     9    10    1
    36     9    11    1
    37    10    12    1
    38    11     5    1
    39    33    34    1
    40    33    35    1
    41    34    36    1
    42    35    37    1
    43    36    42    1
    44    20    21   ar
    45    21    22   ar
@<TRIPOS>MOLECULE
*****
 43 45 0 0 0
SMALL
GASTEIGER

@<TRIPOS>ATOM
      1 P          19.3808   71.8620   -3.9648 P.3     1  UNL1        0.2189
      2 O          18.6272   70.9439   -2.8663 O.co2   1  UNL1       -0.4371
      3 O          19.2660   73.3412   -3.7407 O.2     1  UNL1       -0.5170
      4 O          18.8133   71.3196   -5.3796 O.3     1  UNL1       -0.3112
      5 C          19.5792   71.5515   -6.5489 C.3     1  UNL1        0.1811
      6 O          17.3878   71.1893   -7.4658 O.3     1  UNL1       -0.3308
      7 O          18.7302   71.0868  -10.1450 O.3     1  UNL1       -0.3794
      8 O          17.6978   73.6103  -10.0936 O.3     1  UNL1       -0.3779
      9 C          19.0395   71.8957   -9.0113 C.3     1  UNL1        0.1713
     10 C          18.0154   73.0010   -8.8588 C.3     1  UNL1        0.1895
     11 C          18.7963   71.0619   -7.7595 C.3     1  UNL1        0.1764
     12 C          16.8369   72.2573   -8.2536 C.3     1  UNL1        0.2383
     13 H          18.8782   71.5979  -10.9567 H       1  UNL1        0.2105
     14 H          18.4793   74.0704  -10.4378 H       1  UNL1        0.2106
     15 O          14.8003   73.9806   -9.1812 O.2     1  UNL1       -0.2464
     16 O          13.8309   75.4301   -4.9150 O.2     1  UNL1       -0.2670
     17 N          16.0362   73.0962   -7.4071 N.ar    1  UNL1       -0.2551
     18 N          14.3191   74.7008   -7.0562 N.ar    1  UNL1       -0.2743
     19 C          15.0401   73.9254   -7.9733 C.ar    1  UNL1        0.3323
     20 C          16.2421   73.0909   -6.0318 C.ar    1  UNL1        0.0869
     21 C          15.5470   73.8373   -5.1710 C.ar    1  UNL1        0.0795
     22 C          14.4875   74.7314   -5.6809 C.ar    1  UNL1        0.2626
     23 H          13.6202   75.2866   -7.4278 H       1  UNL1        0.1734
     24 O          20.8936   71.2929   -3.9379 O.3     1  UNL1       -0.2703
     25 P          21.7440   70.5941   -2.7541 P.3     1  UNL1        0.2208
     26 O          23.2715   70.7150   -3.2735 O.co2   1  UNL1       -0.4371
     27 O          21.3097   69.1945   -2.4281 O.2     1  UNL1       -0.5170
     28 O          21.6505   71.6283   -1.5186 O.3     1  UNL1       -0.2858
     29 O          23.2793   72.9451   -0.4097 O.3     1  UNL1       -0.3258
     30 O          21.0659   71.7405    2.8616 O.3     1  UNL1       -0.3794
     31 O          20.8909   74.4598    1.9547 O.3     1  UNL1       -0.3794
     32 O          21.5481   69.8939    0.6851 O.3     1  UNL1       -0.3775
     33 C          21.2726   72.1419    1.5046 C.3     1  UNL1        0.1715
     34 C          21.8861   73.5435    1.5072 C.3     1  UNL1        0.1694
     35 C          22.2112   71.1455    0.8266 C.3     1  UNL1        0.1967
     36 C          22.3818   73.9340    0.1083 C.3     1  UNL1        0.1761
     37 C          22.6837   71.6525   -0.5371 C.3     1  UNL1        0.2704
     38 H          20.4704   72.3688    3.2976 H       1  UNL1        0.2105
     39 H          20.5860   74.2017    2.8388 H       1  UNL1        0.2105
     40 H          21.2542   69.5835    1.5552 H       1  UNL1        0.2106
     41 O          24.5224   74.9899    0.0003 O.3     1  UNL1       -0.3794
     42 C          23.1379   75.2607    0.1191 C.3     1  UNL1        0.1693
     43 H          25.0162   75.8252    0.0054 H       1  UNL1        0.2105
@<TRIPOS>UNITY_ATOM_ATTR
2 1
charge -1
26 1
charge -1
@<TRIPOS>BOND
     1    25    28    1
     2    25    24    1
     3    25    26    1
     4    25    27    2
     5     1     4    1
     6     1    24    1
     7     1     2    1
     8     1     3    2
     9     6    11    1
    10     6    12    1
    11    29    36    1
    12    29    37    1
    13     7     9    1
    14     7    13    1
    15     8    10    1
    16     8    14    1
    17    28    37    1
    18     4     5    1
    19    30    33    1
    20    30    38    1
    21    31    34    1
    22    31    39    1
    23    32    35    1
    24    32    40    1
    25    41    42    1
    26    41    43    1
    27    15    19    2
    28    16    22    2
    29    17    12    1
    30    17    19   ar
    31    17    20   ar
    32    18    19   ar
    33    18    22   ar
    34    18    23    1
    35     9    10    1
    36     9    11    1
    37    10    12    1
    38    11     5    1
    39    33    34    1
    40    33    35    1
    41    34    36    1
    42    35    37    1
    43    36    42    1
    44    20    21   ar
    45    21    22   ar
