@<TRIPOS>MOLECULE
UDP-glaA
 43 45 0 0 0
SMALL
GASTEIGER

@<TRIPOS>ATOM
      1 P          22.7077   71.4231   -2.7522 P.3     1  UNL1        0.2189
      2 O          22.6592   73.0086   -2.4340 O.3     1  UNL1       -0.4371
      3 O          24.0695   70.8846   -3.0801 O.2     1  UNL1       -0.5170
      4 O          21.5782   71.2196   -3.8916 O.3     1  UNL1       -0.3112
      5 C          20.6684   70.1408   -3.7586 C.3     1  UNL1        0.1811
      6 O          18.8661   71.4158   -4.7074 O.3     1  UNL1       -0.3308
      7 O          17.1328   70.1913   -2.5891 O.3     1  UNL1       -0.3794
      8 O          16.5200   68.7058   -4.7921 O.3     1  UNL1       -0.3779
      9 C          18.2206   69.6141   -3.3111 C.3     1  UNL1        0.1713
     10 C          17.8003   69.2997   -4.7313 C.3     1  UNL1        0.1895
     11 C          19.2713   70.6964   -3.5219 C.3     1  UNL1        0.1764
     12 C          17.8392   70.6714   -5.3832 C.3     1  UNL1        0.2383
     13 H          17.4594   70.4113   -1.7000 H       1  UNL1        0.2105
     14 H          16.5499   67.8908   -4.2620 H       1  UNL1        0.2106
     15 O          15.9400   70.2345   -7.4270 O.2     1  UNL1       -0.2464
     16 O          19.1624   70.4336  -10.7157 O.2     1  UNL1       -0.2670
     17 N          18.1540   70.6050   -6.7817 N.ar    1  UNL1       -0.2551
     18 N          17.5459   70.3334   -9.0633 N.ar    1  UNL1       -0.2743
     19 C          17.1262   70.3804   -7.7273 C.ar    1  UNL1        0.3323
     20 C          19.4694   70.7614   -7.2044 C.ar    1  UNL1        0.0869
     21 C          19.8534   70.7145   -8.4819 C.ar    1  UNL1        0.0795
     22 C          18.8419   70.4829   -9.5321 C.ar    1  UNL1        0.2626
     23 H          16.8241   70.1724   -9.7605 H       1  UNL1        0.1734
     24 O          22.0228   70.7694   -1.4411 O.3     1  UNL1       -0.2703
     25 P          21.3269   71.4565   -0.1542 P.3     1  UNL1        0.2208
     26 O          21.2886   70.2579    0.9311 O.3     1  UNL1       -0.4371
     27 O          19.9900   72.0802   -0.4365 O.2     1  UNL1       -0.5170
     28 O          22.4358   72.4837    0.4106 O.3     1  UNL1       -0.2858
     29 O          23.6172   71.7495    2.3249 O.3     1  UNL1       -0.3226
     30 O          24.7146   75.7529    2.1065 O.3     1  UNL1       -0.3794
     31 O          21.9637   74.9399    1.5798 O.3     1  UNL1       -0.3775
     32 O          25.4703   73.5443    3.5833 O.3     1  UNL1       -0.3792
     33 C          24.3441   74.4550    1.6500 C.3     1  UNL1        0.1718
     34 C          22.9462   74.0881    2.1595 C.3     1  UNL1        0.1968
     35 C          25.3705   73.4393    2.1592 C.3     1  UNL1        0.1723
     36 C          22.6092   72.6311    1.8192 C.3     1  UNL1        0.2706
     37 C          24.9153   72.0262    1.8014 C.3     1  UNL1        0.1830
     38 H          25.6046   75.9417    1.7632 H       1  UNL1        0.2105
     39 H          21.0971   74.6645    1.9235 H       1  UNL1        0.2106
     40 H          24.6734   73.1518    3.9785 H       1  UNL1        0.2106
     41 O          25.1259   69.8787    2.7220 O.co2   1  UNL1       -0.5466
     42 O          27.0259   71.1272    2.5543 O.co2   1  UNL1       -0.5466
     43 C          25.8217   70.9933    2.3918 C.2     1  UNL1        0.0799
@<TRIPOS>UNITY_ATOM_ATTR
41 1
charge -1
@<TRIPOS>BOND
     1     1     4    1
     2     1    24    1
     3     1     2    1
     4     1     3    2
     5    25    28    1
     6    25    24    1
     7    25    26    1
     8    25    27    2
     9     6    11    1
    10     6    12    1
    11    29    36    1
    12    29    37    1
    13     7     9    1
    14     7    13    1
    15     8    10    1
    16     8    14    1
    17     4     5    1
    18    28    36    1
    19    30    33    1
    20    30    38    1
    21    31    34    1
    22    31    39    1
    23    32    35    1
    24    32    40    1
    25    41    43   ar
    26    15    19    2
    27    42    43   ar
    28    16    22    2
    29    17    12    1
    30    17    19   ar
    31    17    20   ar
    32    18    19   ar
    33    18    22   ar
    34    18    23    1
    35     9    10    1
    36     9    11    1
    37    10    12    1
    38    11     5    1
    39    33    34    1
    40    33    35    1
    41    34    36    1
    42    35    37    1
    43    37    43    1
    44    20    21   ar
    45    21    22   ar
@<TRIPOS>MOLECULE
UDP-glaA
 43 45 0 0 0
SMALL
GASTEIGER

@<TRIPOS>ATOM
      1 P          22.2359   71.5363   -2.4949 P.3     1  UNL1        0.2189
      2 O          21.6408   72.7996   -3.3117 O.3     1  UNL1       -0.4371
      3 O          23.5694   71.0432   -2.9754 O.2     1  UNL1       -0.5170
      4 O          21.0347   70.4538   -2.5221 O.3     1  UNL1       -0.3112
      5 C          20.3307   70.2534   -3.7359 C.3     1  UNL1        0.1811
      6 O          18.6055   71.5247   -4.8231 O.3     1  UNL1       -0.3308
      7 O          16.7324   70.3751   -2.7832 O.3     1  UNL1       -0.3794
      8 O          16.2332   68.8409   -4.9815 O.3     1  UNL1       -0.3779
      9 C          17.8538   69.7670   -3.4238 C.3     1  UNL1        0.1713
     10 C          17.5152   69.4212   -4.8585 C.3     1  UNL1        0.1895
     11 C          18.9293   70.8312   -3.5978 C.3     1  UNL1        0.1764
     12 C          17.6113   70.7751   -5.5408 C.3     1  UNL1        0.2383
     13 H          17.0079   70.6141   -1.8818 H       1  UNL1        0.2105
     14 H          16.2206   68.0394   -4.4305 H       1  UNL1        0.2106
     15 O          15.8285   70.3402   -7.6874 O.2     1  UNL1       -0.2464
     16 O          19.2486   70.3836  -10.7761 O.2     1  UNL1       -0.2670
     17 N          18.0084   70.6692   -6.9157 N.ar    1  UNL1       -0.2551
     18 N          17.5329   70.3616   -9.2240 N.ar    1  UNL1       -0.2743
     19 C          17.0343   70.4494   -7.9175 C.ar    1  UNL1        0.3323
     20 C          19.3507   70.7828   -7.2602 C.ar    1  UNL1        0.0869
     21 C          19.8101   70.6973   -8.5106 C.ar    1  UNL1        0.0795
     22 C          18.8584   70.4677   -9.6156 C.ar    1  UNL1        0.2626
     23 H          16.8506   70.2031   -9.9605 H       1  UNL1        0.1734
     24 O          22.2219   72.0559   -0.9635 O.3     1  UNL1       -0.2703
     25 P          22.5663   71.2918    0.4185 P.3     1  UNL1        0.2208
     26 O          24.0413   70.6850    0.1495 O.3     1  UNL1       -0.4371
     27 O          21.5425   70.2731    0.8308 O.2     1  UNL1       -0.5170
     28 O          22.8004   72.4737    1.4919 O.3     1  UNL1       -0.2858
     29 O          24.2752   72.6452    3.3345 O.3     1  UNL1       -0.3226
     30 O          20.9344   74.7090    4.6978 O.3     1  UNL1       -0.3794
     31 O          20.6316   72.2349    3.1836 O.3     1  UNL1       -0.3775
     32 O          23.5243   74.2915    5.5626 O.3     1  UNL1       -0.3792
     33 C          21.9027   74.2205    3.7737 C.3     1  UNL1        0.1718
     34 C          21.8682   72.6893    3.7230 C.3     1  UNL1        0.1968
     35 C          23.2899   74.6991    4.2107 C.3     1  UNL1        0.1723
     36 C          23.0180   72.1482    2.8641 C.3     1  UNL1        0.2706
     37 C          24.3554   74.0696    3.3159 C.3     1  UNL1        0.1830
     38 H          20.9934   75.6796    4.6989 H       1  UNL1        0.2105
     39 H          20.6599   71.2635    3.1624 H       1  UNL1        0.2106
     40 H          23.6946   73.3343    5.5715 H       1  UNL1        0.2106
     41 O          26.6644   73.7469    3.0552 O.co2   1  UNL1       -0.5466
     42 O          25.9950   75.1730    4.7029 O.co2   1  UNL1       -0.5466
     43 C          25.7344   74.4065    3.7869 C.2     1  UNL1        0.0799
@<TRIPOS>UNITY_ATOM_ATTR
41 1
charge -1
@<TRIPOS>BOND
     1     1     4    1
     2     1    24    1
     3     1     2    1
     4     1     3    2
     5    25    28    1
     6    25    24    1
     7    25    26    1
     8    25    27    2
     9     6    11    1
    10     6    12    1
    11    29    36    1
    12    29    37    1
    13     7     9    1
    14     7    13    1
    15     8    10    1
    16     8    14    1
    17     4     5    1
    18    28    36    1
    19    30    33    1
    20    30    38    1
    21    31    34    1
    22    31    39    1
    23    32    35    1
    24    32    40    1
    25    41    43   ar
    26    15    19    2
    27    42    43   ar
    28    16    22    2
    29    17    12    1
    30    17    19   ar
    31    17    20   ar
    32    18    19   ar
    33    18    22   ar
    34    18    23    1
    35     9    10    1
    36     9    11    1
    37    10    12    1
    38    11     5    1
    39    33    34    1
    40    33    35    1
    41    34    36    1
    42    35    37    1
    43    37    43    1
    44    20    21   ar
    45    21    22   ar
@<TRIPOS>MOLECULE
UDP-glaA
 43 45 0 0 0
SMALL
GASTEIGER

@<TRIPOS>ATOM
      1 P          22.9909   71.8220   -2.5067 P.3     1  UNL1        0.2189
      2 O          23.2064   73.3327   -1.9692 O.3     1  UNL1       -0.4371
      3 O          24.1488   71.2513   -3.2720 O.2     1  UNL1       -0.5170
      4 O          21.5856   71.8890   -3.3043 O.3     1  UNL1       -0.3112
      5 C          21.4783   72.7627   -4.4154 C.3     1  UNL1        0.1811
      6 O          20.7642   70.7242   -5.4685 O.3     1  UNL1       -0.3308
      7 O          21.3587   72.0823   -8.0750 O.3     1  UNL1       -0.3794
      8 O          18.6466   72.3009   -7.8946 O.3     1  UNL1       -0.3779
      9 C          20.8264   72.6330   -6.8704 C.3     1  UNL1        0.1713
     10 C          19.3833   72.2106   -6.6926 C.3     1  UNL1        0.1895
     11 C          21.5077   71.9417   -5.6967 C.3     1  UNL1        0.1764
     12 C          19.5310   70.7796   -6.2044 C.3     1  UNL1        0.2383
     13 H          22.2931   72.3465   -8.1263 H       1  UNL1        0.2105
     14 H          18.6918   73.2243   -8.1969 H       1  UNL1        0.2106
     15 O          17.0566   69.7626   -7.1091 O.2     1  UNL1       -0.2464
     16 O          15.4736   69.2820   -2.8077 O.2     1  UNL1       -0.2670
     17 N          18.4549   70.3804   -5.3431 N.ar    1  UNL1       -0.2551
     18 N          16.2698   69.5244   -4.9666 N.ar    1  UNL1       -0.2743
     19 C          17.2527   69.8832   -5.8984 C.ar    1  UNL1        0.3323
     20 C          18.5963   70.4834   -3.9637 C.ar    1  UNL1        0.0869
     21 C          17.6500   70.1366   -3.0884 C.ar    1  UNL1        0.0795
     22 C          16.3641   69.6091   -3.5861 C.ar    1  UNL1        0.2626
     23 H          15.3968   69.1650   -5.3432 H       1  UNL1        0.1734
     24 O          22.6067   71.0103   -1.1618 O.3     1  UNL1       -0.2703
     25 P          21.6616   71.4129    0.0861 P.3     1  UNL1        0.2208
     26 O          21.4940   70.0191    0.8894 O.3     1  UNL1       -0.4371
     27 O          20.3654   72.0617   -0.3070 O.2     1  UNL1       -0.5170
     28 O          22.6007   72.3203    1.0342 O.3     1  UNL1       -0.2858
     29 O          24.2102   72.2363    2.7668 O.3     1  UNL1       -0.3226
     30 O          21.2034   74.5377    4.4821 O.3     1  UNL1       -0.3794
     31 O          20.5420   72.1989    2.8700 O.3     1  UNL1       -0.3775
     32 O          23.7904   73.8153    5.1267 O.3     1  UNL1       -0.3792
     33 C          22.0493   74.0106    3.4638 C.3     1  UNL1        0.1718
     34 C          21.8536   72.4960    3.3373 C.3     1  UNL1        0.1968
     35 C          23.5056   74.3228    3.8189 C.3     1  UNL1        0.1723
     36 C          22.8786   71.8949    2.3676 C.3     1  UNL1        0.2706
     37 C          24.4354   73.6444    2.8153 C.3     1  UNL1        0.1830
     38 H          21.3622   75.4959    4.5285 H       1  UNL1        0.2105
     39 H          20.4685   71.2325    2.7969 H       1  UNL1        0.2106
     40 H          23.8612   72.8471    5.0736 H       1  UNL1        0.2106
     41 O          26.5887   72.7146    2.8651 O.co2   1  UNL1       -0.5466
     42 O          26.3414   74.8077    3.7338 O.co2   1  UNL1       -0.5466
     43 C          25.8713   73.8147    3.1977 C.2     1  UNL1        0.0799
@<TRIPOS>UNITY_ATOM_ATTR
41 1
charge -1
@<TRIPOS>BOND
     1     1     4    1
     2     1    24    1
     3     1     2    1
     4     1     3    2
     5    25    28    1
     6    25    24    1
     7    25    26    1
     8    25    27    2
     9     6    11    1
    10     6    12    1
    11    29    36    1
    12    29    37    1
    13     7     9    1
    14     7    13    1
    15     8    10    1
    16     8    14    1
    17     4     5    1
    18    28    36    1
    19    30    33    1
    20    30    38    1
    21    31    34    1
    22    31    39    1
    23    32    35    1
    24    32    40    1
    25    41    43   ar
    26    15    19    2
    27    42    43   ar
    28    16    22    2
    29    17    12    1
    30    17    19   ar
    31    17    20   ar
    32    18    19   ar
    33    18    22   ar
    34    18    23    1
    35     9    10    1
    36     9    11    1
    37    10    12    1
    38    11     5    1
    39    33    34    1
    40    33    35    1
    41    34    36    1
    42    35    37    1
    43    37    43    1
    44    20    21   ar
    45    21    22   ar
@<TRIPOS>MOLECULE
UDP-glaA
 43 45 0 0 0
SMALL
GASTEIGER

@<TRIPOS>ATOM
      1 P          21.4728   72.2801   -4.7538 P.3     1  UNL1        0.2189
      2 O          20.7690   73.7365   -4.7196 O.3     1  UNL1       -0.4371
      3 O          22.5732   72.1325   -5.7634 O.2     1  UNL1       -0.5170
      4 O          20.2340   71.2522   -4.9089 O.3     1  UNL1       -0.3112
      5 C          19.5860   70.7903   -3.7358 C.3     1  UNL1        0.1811
      6 O          17.8396   71.6605   -5.1383 O.3     1  UNL1       -0.3308
      7 O          15.9203   70.3664   -3.2323 O.3     1  UNL1       -0.3794
      8 O          15.9702   68.6060   -5.3142 O.3     1  UNL1       -0.3779
      9 C          17.1998   69.9122   -3.6732 C.3     1  UNL1        0.1713
     10 C          17.1148   69.4050   -5.0973 C.3     1  UNL1        0.1895
     11 C          18.1045   71.1284   -3.8215 C.3     1  UNL1        0.1764
     12 C          17.0826   70.6993   -5.8921 C.3     1  UNL1        0.2383
     13 H          16.0317   70.7171   -2.3322 H       1  UNL1        0.2105
     14 H          16.0129   67.8587   -4.6930 H       1  UNL1        0.2106
     15 O          15.6452   70.8536   -8.3181 O.2     1  UNL1       -0.2464
     16 O          19.4447   70.1404  -10.8268 O.2     1  UNL1       -0.2670
     17 N          17.6708   70.5582   -7.1935 N.ar    1  UNL1       -0.2551
     18 N          17.5380   70.4978   -9.5657 N.ar    1  UNL1       -0.2743
     19 C          16.8604   70.6515   -8.3490 C.ar    1  UNL1        0.3323
     20 C          19.0370   70.3298   -7.3156 C.ar    1  UNL1        0.0869
     21 C          19.6683   70.1860   -8.4829 C.ar    1  UNL1        0.0795
     22 C          18.8945   70.2689   -9.7375 C.ar    1  UNL1        0.2626
     23 H          16.9753   70.5605  -10.4098 H       1  UNL1        0.1734
     24 O          21.9337   72.0643   -3.2188 O.3     1  UNL1       -0.2703
     25 P          23.4047   72.0114   -2.5509 P.3     1  UNL1        0.2208
     26 O          24.0692   73.4143   -3.0051 O.3     1  UNL1       -0.4371
     27 O          24.2063   70.7967   -2.9221 O.2     1  UNL1       -0.5170
     28 O          23.1412   72.1778   -0.9676 O.3     1  UNL1       -0.2858
     29 O          24.4882   71.1661    0.6941 O.3     1  UNL1       -0.3226
     30 O          20.9186   71.7940    2.7296 O.3     1  UNL1       -0.3794
     31 O          20.9043   70.8572   -0.0323 O.3     1  UNL1       -0.3775
     32 O          23.4793   70.9841    3.3751 O.3     1  UNL1       -0.3792
     33 C          21.9750   72.0350    1.8043 C.3     1  UNL1        0.1718
     34 C          22.0670   70.8913    0.7885 C.3     1  UNL1        0.1968
     35 C          23.2915   72.1570    2.5765 C.3     1  UNL1        0.1723
     36 C          23.3044   71.0546   -0.1028 C.3     1  UNL1        0.2706
     37 C          24.4543   72.2734    1.5933 C.3     1  UNL1        0.1830
     38 H          20.8991   72.5398    3.3533 H       1  UNL1        0.2105
     39 H          21.0120   70.1258   -0.6634 H       1  UNL1        0.2106
     40 H          23.7253   70.2479    2.7897 H       1  UNL1        0.2106
     41 O          26.3338   71.0328    2.2506 O.co2   1  UNL1       -0.5466
     42 O          26.2806   73.2321    2.8483 O.co2   1  UNL1       -0.5466
     43 C          25.7720   72.2647    2.3007 C.2     1  UNL1        0.0799
@<TRIPOS>UNITY_ATOM_ATTR
41 1
charge -1
@<TRIPOS>BOND
     1     1     4    1
     2     1    24    1
     3     1     2    1
     4     1     3    2
     5    25    28    1
     6    25    24    1
     7    25    26    1
     8    25    27    2
     9     6    11    1
    10     6    12    1
    11    29    36    1
    12    29    37    1
    13     7     9    1
    14     7    13    1
    15     8    10    1
    16     8    14    1
    17     4     5    1
    18    28    36    1
    19    30    33    1
    20    30    38    1
    21    31    34    1
    22    31    39    1
    23    32    35    1
    24    32    40    1
    25    41    43   ar
    26    15    19    2
    27    42    43   ar
    28    16    22    2
    29    17    12    1
    30    17    19   ar
    31    17    20   ar
    32    18    19   ar
    33    18    22   ar
    34    18    23    1
    35     9    10    1
    36     9    11    1
    37    10    12    1
    38    11     5    1
    39    33    34    1
    40    33    35    1
    41    34    36    1
    42    35    37    1
    43    37    43    1
    44    20    21   ar
    45    21    22   ar
@<TRIPOS>MOLECULE
UDP-glaA
 43 45 0 0 0
SMALL
GASTEIGER

@<TRIPOS>ATOM
      1 P          22.5218   71.9297   -3.1302 P.3     1  UNL1        0.2189
      2 O          22.3112   73.5076   -2.8421 O.3     1  UNL1       -0.4371
      3 O          23.8713   71.5599   -3.6725 O.2     1  UNL1       -0.5170
      4 O          21.2582   71.5307   -4.0574 O.3     1  UNL1       -0.3112
      5 C          20.4921   70.3915   -3.7046 C.3     1  UNL1        0.1811
      6 O          18.6134   71.4785   -4.7357 O.3     1  UNL1       -0.3308
      7 O          16.9233   70.0937   -2.6822 O.3     1  UNL1       -0.3794
      8 O          16.5531   68.5485   -4.8983 O.3     1  UNL1       -0.3779
      9 C          18.0921   69.6255   -3.3548 C.3     1  UNL1        0.1713
     10 C          17.7645   69.2669   -4.7889 C.3     1  UNL1        0.1895
     11 C          19.0381   70.8062   -3.5296 C.3     1  UNL1        0.1764
     12 C          17.6944   70.6339   -5.4481 C.3     1  UNL1        0.2383
     13 H          17.1891   70.3475   -1.7819 H       1  UNL1        0.2105
     14 H          16.6416   67.7420   -4.3618 H       1  UNL1        0.2106
     15 O          15.9045   70.1473   -7.5776 O.2     1  UNL1       -0.2464
     16 O          19.2572   70.5065  -10.7191 O.2     1  UNL1       -0.2670
     17 N          18.0722   70.5952   -6.8319 N.ar    1  UNL1       -0.2551
     18 N          17.5753   70.3260   -9.1405 N.ar    1  UNL1       -0.2743
     19 C          17.0962   70.3420   -7.8239 C.ar    1  UNL1        0.3323
     20 C          19.3978   70.8066   -7.1948 C.ar    1  UNL1        0.0869
     21 C          19.8387   70.7887   -8.4545 C.ar    1  UNL1        0.0795
     22 C          18.8837   70.5303   -9.5504 C.ar    1  UNL1        0.2626
     23 H          16.8913   70.1452   -9.8703 H       1  UNL1        0.1734
     24 O          22.1580   71.2501   -1.7086 O.3     1  UNL1       -0.2703
     25 P          21.4206   71.8534   -0.4028 P.3     1  UNL1        0.2208
     26 O          21.1739   70.5482    0.5202 O.3     1  UNL1       -0.4371
     27 O          20.1789   72.6420   -0.7059 O.2     1  UNL1       -0.5170
     28 O          22.5684   72.6867    0.3666 O.3     1  UNL1       -0.2858
     29 O          22.0551   74.0155    2.2561 O.3     1  UNL1       -0.3226
     30 O          25.7037   75.5965    1.0446 O.3     1  UNL1       -0.3794
     31 O          23.6818   74.8589   -0.9236 O.3     1  UNL1       -0.3775
     32 O          24.0147   75.8826    3.2115 O.3     1  UNL1       -0.3792
     33 C          24.6961   74.6149    1.2715 C.3     1  UNL1        0.1718
     34 C          23.4315   74.9531    0.4747 C.3     1  UNL1        0.1968
     35 C          24.3761   74.5704    2.7681 C.3     1  UNL1        0.1723
     36 C          22.2865   74.0017    0.8435 C.3     1  UNL1        0.2706
     37 C          23.2002   73.6275    3.0137 C.3     1  UNL1        0.1830
     38 H          26.4827   75.3440    1.5691 H       1  UNL1        0.2105
     39 H          22.8531   75.0716   -1.3849 H       1  UNL1        0.2106
     40 H          23.1231   76.0856    2.8812 H       1  UNL1        0.2106
     41 O          23.8109   73.9635    5.2538 O.co2   1  UNL1       -0.5466
     42 O          21.6342   73.4263    4.8405 O.co2   1  UNL1       -0.5466
     43 C          22.7690   73.6519    4.4456 C.2     1  UNL1        0.0799
@<TRIPOS>UNITY_ATOM_ATTR
41 1
charge -1
@<TRIPOS>BOND
     1     1     4    1
     2     1    24    1
     3     1     2    1
     4     1     3    2
     5    25    28    1
     6    25    24    1
     7    25    26    1
     8    25    27    2
     9     6    11    1
    10     6    12    1
    11    29    36    1
    12    29    37    1
    13     7     9    1
    14     7    13    1
    15     8    10    1
    16     8    14    1
    17     4     5    1
    18    28    36    1
    19    30    33    1
    20    30    38    1
    21    31    34    1
    22    31    39    1
    23    32    35    1
    24    32    40    1
    25    41    43   ar
    26    15    19    2
    27    42    43   ar
    28    16    22    2
    29    17    12    1
    30    17    19   ar
    31    17    20   ar
    32    18    19   ar
    33    18    22   ar
    34    18    23    1
    35     9    10    1
    36     9    11    1
    37    10    12    1
    38    11     5    1
    39    33    34    1
    40    33    35    1
    41    34    36    1
    42    35    37    1
    43    37    43    1
    44    20    21   ar
    45    21    22   ar
@<TRIPOS>MOLECULE
UDP-glaA
 43 45 0 0 0
SMALL
GASTEIGER

@<TRIPOS>ATOM
      1 P          20.9995   72.4848   -4.8458 P.3     1  UNL1        0.2189
      2 O          20.9994   73.3547   -6.2099 O.3     1  UNL1       -0.4371
      3 O          21.5284   71.0875   -4.9863 O.2     1  UNL1       -0.5170
      4 O          19.4812   72.6105   -4.3033 O.3     1  UNL1       -0.3112
      5 C          18.9162   71.5106   -3.6104 C.3     1  UNL1        0.1811
      6 O          17.1616   71.8637   -5.2138 O.3     1  UNL1       -0.3308
      7 O          15.3993   70.3135   -3.3477 O.3     1  UNL1       -0.3794
      8 O          16.0246   68.4634   -5.2508 O.3     1  UNL1       -0.3779
      9 C          16.7823   70.1269   -3.6478 C.3     1  UNL1        0.1713
     10 C          16.9431   69.5121   -5.0221 C.3     1  UNL1        0.1895
     11 C          17.4112   71.5010   -3.8379 C.3     1  UNL1        0.1764
     12 C          16.7053   70.7054   -5.9318 C.3     1  UNL1        0.2383
     13 H          15.3471   70.7443   -2.4775 H       1  UNL1        0.2105
     14 H          16.1703   67.7916   -4.5627 H       1  UNL1        0.2106
     15 O          15.5122   70.7747   -8.4905 O.2     1  UNL1       -0.2464
     16 O          19.5826   70.3136  -10.6019 O.2     1  UNL1       -0.2670
     17 N          17.4292   70.6062   -7.1668 N.ar    1  UNL1       -0.2551
     18 N          17.5398   70.5445   -9.5402 N.ar    1  UNL1       -0.2743
     19 C          16.7348   70.6508   -8.3983 C.ar    1  UNL1        0.3323
     20 C          18.8125   70.4660   -7.1501 C.ar    1  UNL1        0.0869
     21 C          19.5659   70.3664   -8.2475 C.ar    1  UNL1        0.0795
     22 C          18.9185   70.4034   -9.5738 C.ar    1  UNL1        0.2626
     23 H          17.0620   70.5736  -10.4368 H       1  UNL1        0.1734
     24 O          21.8301   73.4194   -3.8202 O.3     1  UNL1       -0.2703
     25 P          23.4118   73.4916   -3.4951 P.3     1  UNL1        0.2208
     26 O          23.8390   74.9487   -4.0523 O.3     1  UNL1       -0.4371
     27 O          24.2098   72.3526   -4.0622 O.2     1  UNL1       -0.5170
     28 O          23.4934   73.6284   -1.8893 O.3     1  UNL1       -0.2858
     29 O          22.3274   72.1579   -0.4480 O.3     1  UNL1       -0.3226
     30 O          23.0282   75.4260    2.0233 O.3     1  UNL1       -0.3794
     31 O          22.2412   75.8135   -0.7581 O.3     1  UNL1       -0.3775
     32 O          22.0553   72.8581    2.3222 O.3     1  UNL1       -0.3792
     33 C          23.2636   74.4719    0.9915 C.3     1  UNL1        0.1718
     34 C          22.1721   74.5635   -0.0802 C.3     1  UNL1        0.1968
     35 C          23.2770   73.0700    1.6071 C.3     1  UNL1        0.1723
     36 C          22.3190   73.4304   -1.1034 C.3     1  UNL1        0.2706
     37 C          23.3857   72.0242    0.4995 C.3     1  UNL1        0.1830
     38 H          23.7399   75.3306    2.6790 H       1  UNL1        0.2105
     39 H          21.5398   75.8215   -1.4310 H       1  UNL1        0.2106
     40 H          21.3396   72.7240    1.6781 H       1  UNL1        0.2106
     41 O          21.9799   70.2286    1.0503 O.co2   1  UNL1       -0.5466
     42 O          24.2110   69.9550    1.4308 O.co2   1  UNL1       -0.5466
     43 C          23.2721   70.6360    1.0446 C.2     1  UNL1        0.0799
@<TRIPOS>UNITY_ATOM_ATTR
41 1
charge -1
@<TRIPOS>BOND
     1     1     4    1
     2     1    24    1
     3     1     2    1
     4     1     3    2
     5    25    28    1
     6    25    24    1
     7    25    26    1
     8    25    27    2
     9     6    11    1
    10     6    12    1
    11    29    36    1
    12    29    37    1
    13     7     9    1
    14     7    13    1
    15     8    10    1
    16     8    14    1
    17     4     5    1
    18    28    36    1
    19    30    33    1
    20    30    38    1
    21    31    34    1
    22    31    39    1
    23    32    35    1
    24    32    40    1
    25    41    43   ar
    26    15    19    2
    27    42    43   ar
    28    16    22    2
    29    17    12    1
    30    17    19   ar
    31    17    20   ar
    32    18    19   ar
    33    18    22   ar
    34    18    23    1
    35     9    10    1
    36     9    11    1
    37    10    12    1
    38    11     5    1
    39    33    34    1
    40    33    35    1
    41    34    36    1
    42    35    37    1
    43    37    43    1
    44    20    21   ar
    45    21    22   ar
@<TRIPOS>MOLECULE
UDP-glaA
 43 45 0 0 0
SMALL
GASTEIGER

@<TRIPOS>ATOM
      1 P          22.6406   72.2118   -2.0830 P.3     1  UNL1        0.2189
      2 O          21.7482   73.3644   -1.3813 O.3     1  UNL1       -0.4371
      3 O          23.6575   72.7101   -3.0677 O.2     1  UNL1       -0.5170
      4 O          21.5468   71.1733   -2.6667 O.3     1  UNL1       -0.3112
      5 C          20.8280   71.5319   -3.8346 C.3     1  UNL1        0.1811
      6 O          20.9884   70.4744   -5.9864 O.3     1  UNL1       -0.3308
      7 O          23.2491   72.3652   -6.5392 O.3     1  UNL1       -0.3794
      8 O          21.1672   73.5218   -7.8672 O.3     1  UNL1       -0.3779
      9 C          22.0464   72.5861   -5.8027 C.3     1  UNL1        0.1713
     10 C          20.8692   72.7157   -6.7461 C.3     1  UNL1        0.1895
     11 C          21.7132   71.3038   -5.0516 C.3     1  UNL1        0.1764
     12 C          20.6047   71.2676   -7.1217 C.3     1  UNL1        0.2383
     13 H          23.9671   72.2497   -5.8937 H       1  UNL1        0.2105
     14 H          21.4308   74.3976   -7.5362 H       1  UNL1        0.2106
     15 O          19.5758   70.8693   -9.7214 O.2     1  UNL1       -0.2464
     16 O          15.2812   70.3342   -8.1375 O.2     1  UNL1       -0.2670
     17 N          19.2222   71.0217   -7.4177 N.ar    1  UNL1       -0.2551
     18 N          17.4379   70.6036   -8.9310 N.ar    1  UNL1       -0.2743
     19 C          18.8087   70.8358   -8.7575 C.ar    1  UNL1        0.3323
     20 C          18.2917   70.9668   -6.3859 C.ar    1  UNL1        0.0869
     21 C          16.9881   70.7440   -6.5676 C.ar    1  UNL1        0.0795
     22 C          16.4741   70.5406   -7.9366 C.ar    1  UNL1        0.2626
     23 H          17.1178   70.4677   -9.8861 H       1  UNL1        0.1734
     24 O          23.2605   71.4144   -0.8200 O.3     1  UNL1       -0.2703
     25 P          22.6104   71.0159    0.6051 P.3     1  UNL1        0.2208
     26 O          23.6872   69.9823    1.2282 O.3     1  UNL1       -0.4371
     27 O          21.2122   70.4749    0.5146 O.2     1  UNL1       -0.5170
     28 O          22.7531   72.3469    1.5062 O.3     1  UNL1       -0.2858
     29 O          24.0833   72.8446    3.3990 O.3     1  UNL1       -0.3226
     30 O          20.5829   74.9304    4.2215 O.3     1  UNL1       -0.3794
     31 O          20.4765   72.2549    3.0655 O.3     1  UNL1       -0.3775
     32 O          23.1160   74.7562    5.3092 O.3     1  UNL1       -0.3792
     33 C          21.6321   74.3589    3.4450 C.3     1  UNL1        0.1718
     34 C          21.6543   72.8361    3.6149 C.3     1  UNL1        0.1968
     35 C          22.9666   74.9563    3.8997 C.3     1  UNL1        0.1723
     36 C          22.8814   72.2301    2.9226 C.3     1  UNL1        0.2706
     37 C          24.1154   74.2540    3.1792 C.3     1  UNL1        0.1830
     38 H          20.6082   75.8929    4.0856 H       1  UNL1        0.2105
     39 H          20.5399   71.2926    3.1875 H       1  UNL1        0.2106
     40 H          23.3181   73.8186    5.4683 H       1  UNL1        0.2106
     41 O          26.2317   75.1255    2.6643 O.co2   1  UNL1       -0.5466
     42 O          25.7796   74.7281    4.8631 O.co2   1  UNL1       -0.5466
     43 C          25.4440   74.7158    3.6876 C.2     1  UNL1        0.0799
@<TRIPOS>UNITY_ATOM_ATTR
41 1
charge -1
@<TRIPOS>BOND
     1     1     4    1
     2     1    24    1
     3     1     2    1
     4     1     3    2
     5    25    28    1
     6    25    24    1
     7    25    26    1
     8    25    27    2
     9     6    11    1
    10     6    12    1
    11    29    36    1
    12    29    37    1
    13     7     9    1
    14     7    13    1
    15     8    10    1
    16     8    14    1
    17     4     5    1
    18    28    36    1
    19    30    33    1
    20    30    38    1
    21    31    34    1
    22    31    39    1
    23    32    35    1
    24    32    40    1
    25    41    43   ar
    26    15    19    2
    27    42    43   ar
    28    16    22    2
    29    17    12    1
    30    17    19   ar
    31    17    20   ar
    32    18    19   ar
    33    18    22   ar
    34    18    23    1
    35     9    10    1
    36     9    11    1
    37    10    12    1
    38    11     5    1
    39    33    34    1
    40    33    35    1
    41    34    36    1
    42    35    37    1
    43    37    43    1
    44    20    21   ar
    45    21    22   ar
@<TRIPOS>MOLECULE
UDP-glaA
 43 45 0 0 0
SMALL
GASTEIGER

@<TRIPOS>ATOM
      1 P          22.6785   71.4501   -2.7473 P.3     1  UNL1        0.2189
      2 O          22.6294   73.0497   -2.5100 O.3     1  UNL1       -0.4371
      3 O          24.0470   70.8897   -3.0025 O.2     1  UNL1       -0.5170
      4 O          21.5860   71.1952   -3.9123 O.3     1  UNL1       -0.3112
      5 C          20.6509   70.1431   -3.7456 C.3     1  UNL1        0.1811
      6 O          18.8843   71.4560   -4.7098 O.3     1  UNL1       -0.3308
      7 O          17.1175   70.3024   -2.5793 O.3     1  UNL1       -0.3794
      8 O          16.4655   68.8099   -4.7664 O.3     1  UNL1       -0.3779
      9 C          18.1896   69.6880   -3.2942 C.3     1  UNL1        0.1713
     10 C          17.7614   69.3695   -4.7112 C.3     1  UNL1        0.1895
     11 C          19.2693   70.7390   -3.5161 C.3     1  UNL1        0.1764
     12 C          17.8379   70.7323   -5.3780 C.3     1  UNL1        0.2383
     13 H          17.4496   70.5232   -1.6925 H       1  UNL1        0.2105
     14 H          16.4731   68.0002   -4.2273 H       1  UNL1        0.2106
     15 O          15.9282   70.3261   -7.4185 O.2     1  UNL1       -0.2464
     16 O          19.1564   70.3999  -10.7066 O.2     1  UNL1       -0.2670
     17 N          18.1513   70.6420   -6.7755 N.ar    1  UNL1       -0.2551
     18 N          17.5370   70.3626   -9.0544 N.ar    1  UNL1       -0.2743
     19 C          17.1182   70.4358   -7.7194 C.ar    1  UNL1        0.3323
     20 C          19.4707   70.7572   -7.1989 C.ar    1  UNL1        0.0869
     21 C          19.8539   70.6857   -8.4755 C.ar    1  UNL1        0.0795
     22 C          18.8369   70.4710   -9.5239 C.ar    1  UNL1        0.2626
     23 H          16.8113   70.2141   -9.7504 H       1  UNL1        0.1734
     24 O          21.9465   70.8656   -1.4290 O.3     1  UNL1       -0.2703
     25 P          22.2731   71.0650    0.1414 P.3     1  UNL1        0.2208
     26 O          23.8735   71.2985    0.1608 O.3     1  UNL1       -0.4371
     27 O          21.8000   69.9400    1.0167 O.2     1  UNL1       -0.5170
     28 O          21.6458   72.5054    0.5098 O.3     1  UNL1       -0.2858
     29 O          22.0791   74.8060    0.8548 O.3     1  UNL1       -0.3226
     30 O          20.8713   73.5707    4.6356 O.3     1  UNL1       -0.3794
     31 O          22.6235   71.8919    3.0179 O.3     1  UNL1       -0.3775
     32 O          21.4220   75.9752    3.3924 O.3     1  UNL1       -0.3792
     33 C          20.9241   73.6183    3.2125 C.3     1  UNL1        0.1718
     34 C          22.3271   73.2515    2.7172 C.3     1  UNL1        0.1968
     35 C          20.5583   75.0315    2.7503 C.3     1  UNL1        0.1723
     36 C          22.4418   73.4657    1.2028 C.3     1  UNL1        0.2706
     37 C          20.7468   75.1420    1.2389 C.3     1  UNL1        0.1830
     38 H          19.9683   73.8117    4.9039 H       1  UNL1        0.2105
     39 H          23.5146   71.7038    2.6781 H       1  UNL1        0.2106
     40 H          22.3025   75.9154    2.9845 H       1  UNL1        0.2106
     41 O          19.5923   77.1649    1.5203 O.co2   1  UNL1       -0.5466
     42 O          21.1046   77.0608   -0.1824 O.co2   1  UNL1       -0.5466
     43 C          20.5254   76.5418    0.7608 C.2     1  UNL1        0.0799
@<TRIPOS>UNITY_ATOM_ATTR
41 1
charge -1
@<TRIPOS>BOND
     1     1     4    1
     2     1    24    1
     3     1     2    1
     4     1     3    2
     5    25    28    1
     6    25    24    1
     7    25    26    1
     8    25    27    2
     9     6    11    1
    10     6    12    1
    11    29    36    1
    12    29    37    1
    13     7     9    1
    14     7    13    1
    15     8    10    1
    16     8    14    1
    17     4     5    1
    18    28    36    1
    19    30    33    1
    20    30    38    1
    21    31    34    1
    22    31    39    1
    23    32    35    1
    24    32    40    1
    25    41    43   ar
    26    15    19    2
    27    42    43   ar
    28    16    22    2
    29    17    12    1
    30    17    19   ar
    31    17    20   ar
    32    18    19   ar
    33    18    22   ar
    34    18    23    1
    35     9    10    1
    36     9    11    1
    37    10    12    1
    38    11     5    1
    39    33    34    1
    40    33    35    1
    41    34    36    1
    42    35    37    1
    43    37    43    1
    44    20    21   ar
    45    21    22   ar
@<TRIPOS>MOLECULE
UDP-glaA
 43 45 0 0 0
SMALL
GASTEIGER

@<TRIPOS>ATOM
      1 P          21.1643   72.7829   -5.3188 P.3     1  UNL1        0.2189
      2 O          19.9540   73.5333   -4.5510 O.3     1  UNL1       -0.4371
      3 O          22.1041   73.6900   -6.0577 O.2     1  UNL1       -0.5170
      4 O          20.4208   71.6605   -6.2149 O.3     1  UNL1       -0.3112
      5 C          20.0831   71.9776   -7.5546 C.3     1  UNL1        0.1811
      6 O          18.8532   69.9521   -7.1556 O.3     1  UNL1       -0.3308
      7 O          18.1081   70.0537  -10.0583 O.3     1  UNL1       -0.3794
      8 O          15.8679   71.0129   -8.8345 O.3     1  UNL1       -0.3779
      9 C          18.2783   71.1260   -9.1314 C.3     1  UNL1        0.1713
     10 C          17.1055   71.1850   -8.1755 C.3     1  UNL1        0.1895
     11 C          19.4294   70.7649   -8.2018 C.3     1  UNL1        0.1764
     12 C          17.4207   70.0480   -7.2185 C.3     1  UNL1        0.2383
     13 H          18.8992   70.0306  -10.6232 H       1  UNL1        0.2105
     14 H          15.7923   71.7151   -9.5033 H       1  UNL1        0.2106
     15 O          16.3738   68.0418   -5.5289 O.2     1  UNL1       -0.2464
     16 O          15.4864   71.0741   -2.1739 O.2     1  UNL1       -0.2670
     17 N          16.9098   70.2849   -5.8986 N.ar    1  UNL1       -0.2551
     18 N          15.9322   69.5532   -3.8596 N.ar    1  UNL1       -0.2743
     19 C          16.4057   69.2081   -5.1323 C.ar    1  UNL1        0.3323
     20 C          16.9115   71.5732   -5.3756 C.ar    1  UNL1        0.0869
     21 C          16.4569   71.8859   -4.1601 C.ar    1  UNL1        0.0795
     22 C          15.9127   70.8196   -3.2962 C.ar    1  UNL1        0.2626
     23 H          15.5644   68.7950   -3.2911 H       1  UNL1        0.1734
     24 O          21.8537   71.9114   -4.1439 O.3     1  UNL1       -0.2703
     25 P          23.1996   72.1656   -3.2858 P.3     1  UNL1        0.2208
     26 O          24.2936   72.5451   -4.4151 O.3     1  UNL1       -0.4371
     27 O          23.5933   71.0164   -2.4026 O.2     1  UNL1       -0.5170
     28 O          22.9281   73.5483   -2.4993 O.3     1  UNL1       -0.2858
     29 O          20.8829   72.8885   -1.5087 O.3     1  UNL1       -0.3226
     30 O          23.6603   70.7331    0.7093 O.3     1  UNL1       -0.3794
     31 O          24.1925   73.4995   -0.0454 O.3     1  UNL1       -0.3775
     32 O          20.9092   70.8152    0.4761 O.3     1  UNL1       -0.3792
     33 C          23.0803   71.3721   -0.4245 C.3     1  UNL1        0.1718
     34 C          22.9193   72.8742   -0.1672 C.3     1  UNL1        0.1968
     35 C          21.7145   70.7393   -0.7048 C.3     1  UNL1        0.1723
     36 C          22.1415   73.5405   -1.3088 C.3     1  UNL1        0.2706
     37 C          21.0151   71.5039   -1.8265 C.3     1  UNL1        0.1830
     38 H          23.7410   69.7862    0.5031 H       1  UNL1        0.2105
     39 H          24.0404   74.4475    0.1067 H       1  UNL1        0.2106
     40 H          20.6184   71.7355    0.5930 H       1  UNL1        0.2106
     41 O          18.7207   71.8171   -1.4509 O.co2   1  UNL1       -0.5466
     42 O          19.3326   69.9961   -2.6782 O.co2   1  UNL1       -0.5466
     43 C          19.6237   71.0014   -2.0465 C.2     1  UNL1        0.0799
@<TRIPOS>UNITY_ATOM_ATTR
41 1
charge -1
@<TRIPOS>BOND
     1     1     4    1
     2     1    24    1
     3     1     2    1
     4     1     3    2
     5    25    28    1
     6    25    24    1
     7    25    26    1
     8    25    27    2
     9     6    11    1
    10     6    12    1
    11    29    36    1
    12    29    37    1
    13     7     9    1
    14     7    13    1
    15     8    10    1
    16     8    14    1
    17     4     5    1
    18    28    36    1
    19    30    33    1
    20    30    38    1
    21    31    34    1
    22    31    39    1
    23    32    35    1
    24    32    40    1
    25    41    43   ar
    26    15    19    2
    27    42    43   ar
    28    16    22    2
    29    17    12    1
    30    17    19   ar
    31    17    20   ar
    32    18    19   ar
    33    18    22   ar
    34    18    23    1
    35     9    10    1
    36     9    11    1
    37    10    12    1
    38    11     5    1
    39    33    34    1
    40    33    35    1
    41    34    36    1
    42    35    37    1
    43    37    43    1
    44    20    21   ar
    45    21    22   ar
@<TRIPOS>MOLECULE
UDP-glaA
 43 45 0 0 0
SMALL
GASTEIGER

@<TRIPOS>ATOM
      1 P          22.7398   71.4859   -2.6658 P.3     1  UNL1        0.2189
      2 O          22.8151   73.0653   -2.3234 O.3     1  UNL1       -0.4371
      3 O          24.0545   70.8497   -3.0107 O.2     1  UNL1       -0.5170
      4 O          21.5921   71.3875   -3.8009 O.3     1  UNL1       -0.3112
      5 C          20.6838   70.3003   -3.7534 C.3     1  UNL1        0.1811
      6 O          18.8569   71.5233   -4.7235 O.3     1  UNL1       -0.3308
      7 O          17.1521   70.3180   -2.5712 O.3     1  UNL1       -0.3794
      8 O          16.5564   68.7731   -4.7378 O.3     1  UNL1       -0.3779
      9 C          18.2468   69.7430   -3.2844 C.3     1  UNL1        0.1713
     10 C          17.8267   69.3896   -4.6955 C.3     1  UNL1        0.1895
     11 C          19.2783   70.8377   -3.5237 C.3     1  UNL1        0.1764
     12 C          17.8402   70.7467   -5.3782 C.3     1  UNL1        0.2383
     13 H          17.4781   70.5635   -1.6886 H       1  UNL1        0.2105
     14 H          16.6020   67.9709   -4.1897 H       1  UNL1        0.2106
     15 O          15.9314   70.2987   -7.4107 O.2     1  UNL1       -0.2464
     16 O          19.1483   70.4074  -10.7089 O.2     1  UNL1       -0.2670
     17 N          18.1510   70.6541   -6.7762 N.ar    1  UNL1       -0.2551
     18 N          17.5346   70.3526   -9.0517 N.ar    1  UNL1       -0.2743
     19 C          17.1186   70.4261   -7.7158 C.ar    1  UNL1        0.3323
     20 C          19.4671   70.7884   -7.2041 C.ar    1  UNL1        0.0869
     21 C          19.8477   70.7163   -8.4815 C.ar    1  UNL1        0.0795
     22 C          18.8312   70.4795   -9.5256 C.ar    1  UNL1        0.2626
     23 H          16.8094   70.1887   -9.7447 H       1  UNL1        0.1734
     24 O          22.0137   70.8664   -1.3605 O.3     1  UNL1       -0.2703
     25 P          22.2969   71.0872    0.2155 P.3     1  UNL1        0.2208
     26 O          23.8919   71.3500    0.2725 O.3     1  UNL1       -0.4371
     27 O          21.8222   69.9624    1.0902 O.2     1  UNL1       -0.5170
     28 O          21.6347   72.5195    0.5532 O.3     1  UNL1       -0.2858
     29 O          21.1708   72.6433    2.8703 O.3     1  UNL1       -0.3226
     30 O          19.6703   76.2647    1.4868 O.3     1  UNL1       -0.3794
     31 O          19.2698   73.8138   -0.0424 O.3     1  UNL1       -0.3775
     32 O          20.1225   75.0895    3.9454 O.3     1  UNL1       -0.3792
     33 C          20.5300   75.1310    1.5648 C.3     1  UNL1        0.1718
     34 C          19.7421   73.8436    1.3003 C.3     1  UNL1        0.1968
     35 C          21.1602   75.0824    2.9594 C.3     1  UNL1        0.1723
     36 C          20.6180   72.6096    1.5503 C.3     1  UNL1        0.2706
     37 C          21.9730   73.7984    3.1108 C.3     1  UNL1        0.1830
     38 H          20.2096   77.0545    1.6628 H       1  UNL1        0.2105
     39 H          18.7870   72.9791   -0.1652 H       1  UNL1        0.2106
     40 H          19.6960   74.2159    3.9513 H       1  UNL1        0.2106
     41 O          22.8709   74.8470    5.0077 O.co2   1  UNL1       -0.5466
     42 O          22.5869   72.5872    5.1073 O.co2   1  UNL1       -0.5466
     43 C          22.5009   73.6458    4.5018 C.2     1  UNL1        0.0799
@<TRIPOS>UNITY_ATOM_ATTR
41 1
charge -1
@<TRIPOS>BOND
     1     1     4    1
     2     1    24    1
     3     1     2    1
     4     1     3    2
     5    25    28    1
     6    25    24    1
     7    25    26    1
     8    25    27    2
     9     6    11    1
    10     6    12    1
    11    29    36    1
    12    29    37    1
    13     7     9    1
    14     7    13    1
    15     8    10    1
    16     8    14    1
    17     4     5    1
    18    28    36    1
    19    30    33    1
    20    30    38    1
    21    31    34    1
    22    31    39    1
    23    32    35    1
    24    32    40    1
    25    41    43   ar
    26    15    19    2
    27    42    43   ar
    28    16    22    2
    29    17    12    1
    30    17    19   ar
    31    17    20   ar
    32    18    19   ar
    33    18    22   ar
    34    18    23    1
    35     9    10    1
    36     9    11    1
    37    10    12    1
    38    11     5    1
    39    33    34    1
    40    33    35    1
    41    34    36    1
    42    35    37    1
    43    37    43    1
    44    20    21   ar
    45    21    22   ar
@<TRIPOS>MOLECULE
UDP-glaA
 43 45 0 0 0
SMALL
GASTEIGER

@<TRIPOS>ATOM
      1 P          22.1421   71.3966    0.4732 P.3     1  UNL1        0.2189
      2 O          21.1282   72.5561   -0.0217 O.3     1  UNL1       -0.4371
      3 O          21.5160   70.3274    1.3200 O.2     1  UNL1       -0.5170
      4 O          23.3612   72.2104    1.1566 O.3     1  UNL1       -0.3112
      5 C          23.4830   72.1885    2.5686 C.3     1  UNL1        0.1811
      6 O          24.4830   73.7075    4.1393 O.3     1  UNL1       -0.3308
      7 O          23.3920   75.9087    2.4202 O.3     1  UNL1       -0.3794
      8 O          26.0127   75.8127    1.6728 O.3     1  UNL1       -0.3779
      9 C          23.9155   74.6376    2.0357 C.3     1  UNL1        0.1713
     10 C          25.4237   74.6286    2.1693 C.3     1  UNL1        0.1895
     11 C          23.4963   73.6192    3.0877 C.3     1  UNL1        0.1764
     12 C          25.6069   74.4695    3.6690 C.3     1  UNL1        0.2383
     13 H          22.4232   75.8546    2.3560 H       1  UNL1        0.2105
     14 H          25.7585   75.8963    0.7377 H       1  UNL1        0.2106
     15 O          26.5480   72.1721    2.3231 O.2     1  UNL1       -0.2464
     16 O          30.2601   71.8781    5.0383 O.2     1  UNL1       -0.2670
     17 N          26.8163   73.7728    4.0027 N.ar    1  UNL1       -0.2551
     18 N          28.3956   72.0269    3.6764 N.ar    1  UNL1       -0.2743
     19 C          27.1990   72.6284    3.2647 C.ar    1  UNL1        0.3323
     20 C          27.6095   74.2244    5.0516 C.ar    1  UNL1        0.0869
     21 C          28.7480   73.6401    5.4317 C.ar    1  UNL1        0.0795
     22 C          29.2181   72.4390    4.7134 C.ar    1  UNL1        0.2626
     23 H          28.6901   71.2022    3.1604 H       1  UNL1        0.1734
     24 O          22.7898   70.8667   -0.9106 O.3     1  UNL1       -0.2703
     25 P          22.9098   71.5680   -2.3619 P.3     1  UNL1        0.2208
     26 O          24.2202   70.8703   -3.0039 O.3     1  UNL1       -0.4371
     27 O          22.9646   73.0683   -2.3185 O.2     1  UNL1       -0.5170
     28 O          21.6728   70.9704   -3.2085 O.3     1  UNL1       -0.2858
     29 O          20.1124   72.0871   -4.5933 O.3     1  UNL1       -0.3226
     30 O          17.8443   68.9499   -3.0790 O.3     1  UNL1       -0.3794
     31 O          19.7026   70.3990   -1.3606 O.3     1  UNL1       -0.3775
     32 O          17.5293   70.9052   -5.0046 O.3     1  UNL1       -0.3792
     33 C          18.9943   69.6412   -3.5585 C.3     1  UNL1        0.1718
     34 C          19.3123   70.8390   -2.6572 C.3     1  UNL1        0.1968
     35 C          18.7249   70.1183   -4.9882 C.3     1  UNL1        0.1723
     36 C          20.4399   71.6871   -3.2585 C.3     1  UNL1        0.2706
     37 C          19.8886   70.9828   -5.4686 C.3     1  UNL1        0.1830
     38 H          17.6792   68.2032   -3.6796 H       1  UNL1        0.2105
     39 H          19.9023   71.1889   -0.8306 H       1  UNL1        0.2106
     40 H          17.7219   71.7681   -4.6004 H       1  UNL1        0.2106
     41 O          18.8918   70.7193   -7.5759 O.co2   1  UNL1       -0.5466
     42 O          19.9744   72.6857   -7.1781 O.co2   1  UNL1       -0.5466
     43 C          19.6103   71.5775   -6.8124 C.2     1  UNL1        0.0799
@<TRIPOS>UNITY_ATOM_ATTR
41 1
charge -1
@<TRIPOS>BOND
     1     1     4    1
     2     1    24    1
     3     1     2    1
     4     1     3    2
     5    25    28    1
     6    25    24    1
     7    25    26    1
     8    25    27    2
     9     6    11    1
    10     6    12    1
    11    29    36    1
    12    29    37    1
    13     7     9    1
    14     7    13    1
    15     8    10    1
    16     8    14    1
    17     4     5    1
    18    28    36    1
    19    30    33    1
    20    30    38    1
    21    31    34    1
    22    31    39    1
    23    32    35    1
    24    32    40    1
    25    41    43   ar
    26    15    19    2
    27    42    43   ar
    28    16    22    2
    29    17    12    1
    30    17    19   ar
    31    17    20   ar
    32    18    19   ar
    33    18    22   ar
    34    18    23    1
    35     9    10    1
    36     9    11    1
    37    10    12    1
    38    11     5    1
    39    33    34    1
    40    33    35    1
    41    34    36    1
    42    35    37    1
    43    37    43    1
    44    20    21   ar
    45    21    22   ar
@<TRIPOS>MOLECULE
UDP-glaA
 43 45 0 0 0
SMALL
GASTEIGER

@<TRIPOS>ATOM
      1 P          21.9423   72.4581   -5.7585 P.3     1  UNL1        0.2189
      2 O          21.2410   73.8747   -5.4138 O.3     1  UNL1       -0.4371
      3 O          23.1759   72.5526   -6.6079 O.2     1  UNL1       -0.5170
      4 O          20.7382   71.5645   -6.3647 O.3     1  UNL1       -0.3112
      5 C          20.1737   71.9430   -7.6086 C.3     1  UNL1        0.1811
      6 O          18.9511   69.9196   -7.1780 O.3     1  UNL1       -0.3308
      7 O          18.1374   70.0186  -10.0623 O.3     1  UNL1       -0.3794
      8 O          15.9281   70.9820   -8.7870 O.3     1  UNL1       -0.3779
      9 C          18.3309   71.0917   -9.1411 C.3     1  UNL1        0.1713
     10 C          17.1812   71.1534   -8.1578 C.3     1  UNL1        0.1895
     11 C          19.5033   70.7304   -8.2386 C.3     1  UNL1        0.1764
     12 C          17.5176   70.0171   -7.2071 C.3     1  UNL1        0.2383
     13 H          18.9149   69.9938  -10.6458 H       1  UNL1        0.2105
     14 H          15.8375   71.6836   -9.4547 H       1  UNL1        0.2106
     15 O          16.2392   68.0791   -5.5992 O.2     1  UNL1       -0.2464
     16 O          15.7189   71.0487   -2.1136 O.2     1  UNL1       -0.2670
     17 N          17.0385   70.2563   -5.8757 N.ar    1  UNL1       -0.2551
     18 N          15.9805   69.5593   -3.8648 N.ar    1  UNL1       -0.2743
     19 C          16.4097   69.2153   -5.1534 C.ar    1  UNL1        0.3323
     20 C          17.1934   71.5117   -5.2983 C.ar    1  UNL1        0.0869
     21 C          16.7793   71.8239   -4.0684 C.ar    1  UNL1        0.0795
     22 C          16.1119   70.7938   -3.2479 C.ar    1  UNL1        0.2626
     23 H          15.5251   68.8266   -3.3273 H       1  UNL1        0.1734
     24 O          22.1786   71.8058   -4.2977 O.3     1  UNL1       -0.2703
     25 P          23.4279   71.9139   -3.2779 P.3     1  UNL1        0.2208
     26 O          24.2160   73.2285   -3.7945 O.3     1  UNL1       -0.4371
     27 O          24.2722   70.6739   -3.2044 O.2     1  UNL1       -0.5170
     28 O          22.7711   72.3575   -1.8722 O.3     1  UNL1       -0.2858
     29 O          23.1342   70.8813   -0.0589 O.3     1  UNL1       -0.3226
     30 O          20.2127   73.4204    1.4566 O.3     1  UNL1       -0.3794
     31 O          20.0729   72.4795   -1.3004 O.3     1  UNL1       -0.3775
     32 O          21.8340   71.4138    2.4440 O.3     1  UNL1       -0.3792
     33 C          21.3481   73.0118    0.6989 C.3     1  UNL1        0.1718
     34 C          20.9522   71.9381   -0.3203 C.3     1  UNL1        0.1968
     35 C          22.4093   72.4605    1.6551 C.3     1  UNL1        0.1723
     36 C          22.1929   71.3697   -1.0203 C.3     1  UNL1        0.2706
     37 C          23.5750   71.8867    0.8524 C.3     1  UNL1        0.1830
     38 H          20.5099   74.0969    2.0888 H       1  UNL1        0.2105
     39 H          19.8581   71.7680   -1.9269 H       1  UNL1        0.2106
     40 H          21.7260   70.6275    1.8825 H       1  UNL1        0.2106
     41 O          25.4488   72.1275    2.2433 O.co2   1  UNL1       -0.5466
     42 O          24.6079   70.0238    1.9892 O.co2   1  UNL1       -0.5466
     43 C          24.5762   71.2205    1.7416 C.2     1  UNL1        0.0799
@<TRIPOS>UNITY_ATOM_ATTR
41 1
charge -1
@<TRIPOS>BOND
     1     1     4    1
     2     1    24    1
     3     1     2    1
     4     1     3    2
     5    25    28    1
     6    25    24    1
     7    25    26    1
     8    25    27    2
     9     6    11    1
    10     6    12    1
    11    29    36    1
    12    29    37    1
    13     7     9    1
    14     7    13    1
    15     8    10    1
    16     8    14    1
    17     4     5    1
    18    28    36    1
    19    30    33    1
    20    30    38    1
    21    31    34    1
    22    31    39    1
    23    32    35    1
    24    32    40    1
    25    41    43   ar
    26    15    19    2
    27    42    43   ar
    28    16    22    2
    29    17    12    1
    30    17    19   ar
    31    17    20   ar
    32    18    19   ar
    33    18    22   ar
    34    18    23    1
    35     9    10    1
    36     9    11    1
    37    10    12    1
    38    11     5    1
    39    33    34    1
    40    33    35    1
    41    34    36    1
    42    35    37    1
    43    37    43    1
    44    20    21   ar
    45    21    22   ar
@<TRIPOS>MOLECULE
UDP-glaA
 43 45 0 0 0
SMALL
GASTEIGER

@<TRIPOS>ATOM
      1 P          23.2101   72.0468   -2.6429 P.3     1  UNL1        0.2189
      2 O          24.2596   70.9329   -3.1676 O.3     1  UNL1       -0.4371
      3 O          23.7960   73.4087   -2.4105 O.2     1  UNL1       -0.5170
      4 O          22.5145   71.3524   -1.3586 O.3     1  UNL1       -0.3112
      5 C          23.3347   70.9728   -0.2665 C.3     1  UNL1        0.1811
      6 O          23.4237   70.9281    2.1344 O.3     1  UNL1       -0.3308
      7 O          20.6861   72.1500    2.0722 O.3     1  UNL1       -0.3794
      8 O          22.2846   74.2966    2.5947 O.3     1  UNL1       -0.3779
      9 C          21.7929   72.3687    1.1975 C.3     1  UNL1        0.1713
     10 C          22.8461   73.2125    1.8840 C.3     1  UNL1        0.1895
     11 C          22.5170   71.0412    1.0154 C.3     1  UNL1        0.1764
     12 C          23.5161   72.1999    2.7972 C.3     1  UNL1        0.2383
     13 H          20.0569   71.5743    1.6051 H       1  UNL1        0.2105
     14 H          21.7839   74.8357    1.9585 H       1  UNL1        0.2106
     15 O          25.6581   70.4602    2.1969 O.2     1  UNL1       -0.2464
     16 O          28.7807   73.4745    3.7468 O.2     1  UNL1       -0.2670
     17 N          24.8985   72.5046    3.0328 N.ar    1  UNL1       -0.2551
     18 N          27.2116   71.9622    2.9695 N.ar    1  UNL1       -0.2743
     19 C          25.8972   71.5612    2.6962 C.ar    1  UNL1        0.3323
     20 C          25.2532   73.7272    3.5920 C.ar    1  UNL1        0.0869
     21 C          26.5111   74.0949    3.8461 C.ar    1  UNL1        0.0795
     22 C          27.6136   73.1670    3.5250 C.ar    1  UNL1        0.2626
     23 H          27.9462   71.2995    2.7362 H       1  UNL1        0.1734
     24 O          22.0413   71.9979   -3.7595 O.3     1  UNL1       -0.2703
     25 P          20.4319   72.0191   -3.6114 P.3     1  UNL1        0.2208
     26 O          20.1149   73.5576   -3.2261 O.3     1  UNL1       -0.4371
     27 O          19.8896   71.0118   -2.6382 O.2     1  UNL1       -0.5170
     28 O          19.8804   71.8536   -5.1188 O.3     1  UNL1       -0.2858
     29 O          18.7104   69.9799   -5.9672 O.3     1  UNL1       -0.3226
     30 O          20.4531   71.5463   -9.4007 O.3     1  UNL1       -0.3794
     31 O          21.9484   71.4340   -6.8992 O.3     1  UNL1       -0.3775
     32 O          18.6043   69.5816   -8.8078 O.3     1  UNL1       -0.3792
     33 C          19.8448   71.5341   -8.1122 C.3     1  UNL1        0.1718
     34 C          20.7148   70.7578   -7.1178 C.3     1  UNL1        0.1968
     35 C          18.4647   70.8803   -8.2224 C.3     1  UNL1        0.1723
     36 C          19.9902   70.5919   -5.7763 C.3     1  UNL1        0.2706
     37 C          17.8559   70.7289   -6.8300 C.3     1  UNL1        0.1830
     38 H          19.8683   72.0449   -9.9965 H       1  UNL1        0.2105
     39 H          22.4595   70.9120   -6.2580 H       1  UNL1        0.2106
     40 H          18.9922   68.9845   -8.1458 H       1  UNL1        0.2106
     41 O          16.4636   69.1318   -5.8228 O.co2   1  UNL1       -0.5466
     42 O          15.7086   70.1053   -7.7409 O.co2   1  UNL1       -0.5466
     43 C          16.5636   69.9775   -6.8766 C.2     1  UNL1        0.0799
@<TRIPOS>UNITY_ATOM_ATTR
41 1
charge -1
@<TRIPOS>BOND
     1     1     4    1
     2     1    24    1
     3     1     2    1
     4     1     3    2
     5    25    28    1
     6    25    24    1
     7    25    26    1
     8    25    27    2
     9     6    11    1
    10     6    12    1
    11    29    36    1
    12    29    37    1
    13     7     9    1
    14     7    13    1
    15     8    10    1
    16     8    14    1
    17     4     5    1
    18    28    36    1
    19    30    33    1
    20    30    38    1
    21    31    34    1
    22    31    39    1
    23    32    35    1
    24    32    40    1
    25    41    43   ar
    26    15    19    2
    27    42    43   ar
    28    16    22    2
    29    17    12    1
    30    17    19   ar
    31    17    20   ar
    32    18    19   ar
    33    18    22   ar
    34    18    23    1
    35     9    10    1
    36     9    11    1
    37    10    12    1
    38    11     5    1
    39    33    34    1
    40    33    35    1
    41    34    36    1
    42    35    37    1
    43    37    43    1
    44    20    21   ar
    45    21    22   ar
@<TRIPOS>MOLECULE
UDP-glaA
 43 45 0 0 0
SMALL
GASTEIGER

@<TRIPOS>ATOM
      1 P          19.9462   72.2216   -4.7796 P.3     1  UNL1        0.2189
      2 O          20.9496   70.9562   -4.8766 O.3     1  UNL1       -0.4371
      3 O          19.0018   72.1926   -3.6137 O.2     1  UNL1       -0.5170
      4 O          19.2568   72.2851   -6.2412 O.3     1  UNL1       -0.3112
      5 C          19.9781   71.7821   -7.3529 C.3     1  UNL1        0.1811
      6 O          18.4911   69.9547   -6.8802 O.3     1  UNL1       -0.3308
      7 O          17.9220   69.9012   -9.8238 O.3     1  UNL1       -0.3794
      8 O          15.7523   71.2142   -8.8215 O.3     1  UNL1       -0.3779
      9 C          18.1710   71.0195   -8.9722 C.3     1  UNL1        0.1713
     10 C          16.9642   71.2945   -8.1001 C.3     1  UNL1        0.1895
     11 C          19.2176   70.6048   -7.9464 C.3     1  UNL1        0.1764
     12 C          17.0864   70.2119   -7.0413 C.3     1  UNL1        0.2383
     13 H          18.7338   69.7389  -10.3338 H       1  UNL1        0.2105
     14 H          15.7990   71.8625   -9.5452 H       1  UNL1        0.2106
     15 O          16.7930   68.5056   -4.8102 O.2     1  UNL1       -0.2464
     16 O          14.9651   71.8708   -2.2465 O.2     1  UNL1       -0.2670
     17 N          16.5376   70.6158   -5.7784 N.ar    1  UNL1       -0.2551
     18 N          15.8825   70.1824   -3.5352 N.ar    1  UNL1       -0.2743
     19 C          16.4331   69.6809   -4.7220 C.ar    1  UNL1        0.3323
     20 C          16.1092   71.9260   -5.5959 C.ar    1  UNL1        0.0869
     21 C          15.5868   72.3888   -4.4581 C.ar    1  UNL1        0.0795
     22 C          15.4420   71.4767   -3.3063 C.ar    1  UNL1        0.2626
     23 H          15.7972   69.5278   -2.7623 H       1  UNL1        0.1734
     24 O          20.9544   73.4858   -4.7985 O.3     1  UNL1       -0.2703
     25 P          22.5672   73.5570   -4.7196 P.3     1  UNL1        0.2208
     26 O          22.8765   75.1379   -4.8655 O.3     1  UNL1       -0.4371
     27 O          23.2719   72.6920   -5.7251 O.2     1  UNL1       -0.5170
     28 O          22.9170   73.2125   -3.1824 O.3     1  UNL1       -0.2858
     29 O          21.4128   72.7675   -1.4108 O.3     1  UNL1       -0.3226
     30 O          24.6527   74.4293    0.5943 O.3     1  UNL1       -0.3794
     31 O          23.7601   75.5360   -1.9521 O.3     1  UNL1       -0.3775
     32 O          22.2943   73.1712    1.2908 O.3     1  UNL1       -0.3792
     33 C          23.9492   73.6810   -0.3933 C.3     1  UNL1        0.1718
     34 C          23.0117   74.5953   -1.1893 C.3     1  UNL1        0.1968
     35 C          23.1425   72.5802    0.3008 C.3     1  UNL1        0.1723
     36 C          22.1267   73.7744   -2.1356 C.3     1  UNL1        0.2706
     37 C          22.2716   71.8579   -0.7248 C.3     1  UNL1        0.1830
     38 H          25.2305   73.8116    1.0740 H       1  UNL1        0.2105
     39 H          23.1266   76.0846   -2.4447 H       1  UNL1        0.2106
     40 H          21.5607   73.6222    0.8395 H       1  UNL1        0.2106
     41 O          20.2446   70.6793   -0.8039 O.co2   1  UNL1       -0.5466
     42 O          21.6086   70.2803    0.9786 O.co2   1  UNL1       -0.5466
     43 C          21.3696   70.8600   -0.0709 C.2     1  UNL1        0.0799
@<TRIPOS>UNITY_ATOM_ATTR
41 1
charge -1
@<TRIPOS>BOND
     1     1     4    1
     2     1    24    1
     3     1     2    1
     4     1     3    2
     5    25    28    1
     6    25    24    1
     7    25    26    1
     8    25    27    2
     9     6    11    1
    10     6    12    1
    11    29    36    1
    12    29    37    1
    13     7     9    1
    14     7    13    1
    15     8    10    1
    16     8    14    1
    17     4     5    1
    18    28    36    1
    19    30    33    1
    20    30    38    1
    21    31    34    1
    22    31    39    1
    23    32    35    1
    24    32    40    1
    25    41    43   ar
    26    15    19    2
    27    42    43   ar
    28    16    22    2
    29    17    12    1
    30    17    19   ar
    31    17    20   ar
    32    18    19   ar
    33    18    22   ar
    34    18    23    1
    35     9    10    1
    36     9    11    1
    37    10    12    1
    38    11     5    1
    39    33    34    1
    40    33    35    1
    41    34    36    1
    42    35    37    1
    43    37    43    1
    44    20    21   ar
    45    21    22   ar
@<TRIPOS>MOLECULE
UDP-glaA
 43 45 0 0 0
SMALL
GASTEIGER

@<TRIPOS>ATOM
      1 P          23.4973   72.3961   -3.4624 P.3     1  UNL1        0.2189
      2 O          24.1094   70.9191   -3.2148 O.3     1  UNL1       -0.4371
      3 O          24.4860   73.4191   -3.9399 O.2     1  UNL1       -0.5170
      4 O          22.7419   72.7425   -2.0750 O.3     1  UNL1       -0.3112
      5 C          23.5084   72.8081   -0.8844 C.3     1  UNL1        0.1811
      6 O          24.5403   71.2808    0.6573 O.3     1  UNL1       -0.3308
      7 O          21.7841   70.2059    1.1467 O.3     1  UNL1       -0.3794
      8 O          22.1895   71.8135    3.3117 O.3     1  UNL1       -0.3779
      9 C          22.1984   71.5486    0.8950 C.3     1  UNL1        0.1713
     10 C          22.8777   72.1267    2.1185 C.3     1  UNL1        0.1895
     11 C          23.3392   71.5069   -0.1132 C.3     1  UNL1        0.1764
     12 C          24.2519   71.4825    2.0506 C.3     1  UNL1        0.2383
     13 H          21.3909   69.8651    0.3253 H       1  UNL1        0.2105
     14 H          21.2867   72.1663    3.2301 H       1  UNL1        0.2106
     15 O          26.9353   70.6814    2.4156 O.2     1  UNL1       -0.2464
     16 O          28.0879   74.7423    4.2645 O.2     1  UNL1       -0.2670
     17 N          25.2743   72.3102    2.6242 N.ar    1  UNL1       -0.2551
     18 N          27.5074   72.7039    3.3365 N.ar    1  UNL1       -0.2743
     19 C          26.5908   71.8121    2.7640 C.ar    1  UNL1        0.3323
     20 C          24.9682   73.6007    3.0418 C.ar    1  UNL1        0.0869
     21 C          25.8535   74.4389    3.5854 C.ar    1  UNL1        0.0795
     22 C          27.2500   73.9961    3.7674 C.ar    1  UNL1        0.2626
     23 H          28.4599   72.3670    3.4473 H       1  UNL1        0.1734
     24 O          22.2736   72.1150   -4.4817 O.3     1  UNL1       -0.2703
     25 P          20.8590   71.3655   -4.2588 P.3     1  UNL1        0.2208
     26 O          20.1282   72.2771   -3.1403 O.3     1  UNL1       -0.4371
     27 O          20.9818   69.9142   -3.8923 O.2     1  UNL1       -0.5170
     28 O          20.0312   71.6426   -5.6160 O.3     1  UNL1       -0.2858
     29 O          18.3172   70.0215   -5.4323 O.3     1  UNL1       -0.3226
     30 O          16.9939   72.3301   -8.6259 O.3     1  UNL1       -0.3794
     31 O          19.8147   71.6352   -8.3685 O.3     1  UNL1       -0.3775
     32 O          15.9733   70.2910   -7.0670 O.3     1  UNL1       -0.3792
     33 C          17.6259   72.0235   -7.3861 C.3     1  UNL1        0.1718
     34 C          18.7759   71.0341   -7.6028 C.3     1  UNL1        0.1968
     35 C          16.5873   71.4200   -6.4368 C.3     1  UNL1        0.1723
     36 C          19.3503   70.5664   -6.2598 C.3     1  UNL1        0.2706
     37 C          17.2736   70.9539   -5.1546 C.3     1  UNL1        0.1830
     38 H          16.2730   72.9558   -8.4408 H       1  UNL1        0.2105
     39 H          20.5222   70.9766   -8.4712 H       1  UNL1        0.2106
     40 H          16.6087   69.5551   -7.0694 H       1  UNL1        0.2106
     41 O          15.7211   71.1111   -3.4028 O.co2   1  UNL1       -0.5466
     42 O          16.0999   69.0377   -4.2713 O.co2   1  UNL1       -0.5466
     43 C          16.3189   70.2402   -4.2512 C.2     1  UNL1        0.0799
@<TRIPOS>UNITY_ATOM_ATTR
41 1
charge -1
@<TRIPOS>BOND
     1     1     4    1
     2     1    24    1
     3     1     2    1
     4     1     3    2
     5    25    28    1
     6    25    24    1
     7    25    26    1
     8    25    27    2
     9     6    11    1
    10     6    12    1
    11    29    36    1
    12    29    37    1
    13     7     9    1
    14     7    13    1
    15     8    10    1
    16     8    14    1
    17     4     5    1
    18    28    36    1
    19    30    33    1
    20    30    38    1
    21    31    34    1
    22    31    39    1
    23    32    35    1
    24    32    40    1
    25    41    43   ar
    26    15    19    2
    27    42    43   ar
    28    16    22    2
    29    17    12    1
    30    17    19   ar
    31    17    20   ar
    32    18    19   ar
    33    18    22   ar
    34    18    23    1
    35     9    10    1
    36     9    11    1
    37    10    12    1
    38    11     5    1
    39    33    34    1
    40    33    35    1
    41    34    36    1
    42    35    37    1
    43    37    43    1
    44    20    21   ar
    45    21    22   ar
@<TRIPOS>MOLECULE
UDP-glaA
 43 45 0 0 0
SMALL
GASTEIGER

@<TRIPOS>ATOM
      1 P          22.0046   72.9353   -5.1041 P.3     1  UNL1        0.2189
      2 O          21.7257   74.4561   -4.6277 O.3     1  UNL1       -0.4371
      3 O          23.1873   72.7631   -6.0116 O.2     1  UNL1       -0.5170
      4 O          20.5832   72.4473   -5.7016 O.3     1  UNL1       -0.3112
      5 C          20.3875   72.4904   -7.1048 C.3     1  UNL1        0.1811
      6 O          19.4747   70.3416   -6.5357 O.3     1  UNL1       -0.3308
      7 O          19.3103   69.8382   -9.4872 O.3     1  UNL1       -0.3794
      8 O          16.7408   70.4928   -8.8506 O.3     1  UNL1       -0.3779
      9 C          19.1052   71.0525   -8.7652 C.3     1  UNL1        0.1713
     10 C          17.7750   71.0157   -8.0428 C.3     1  UNL1        0.1895
     11 C          20.0953   71.0841   -7.6084 C.3     1  UNL1        0.1764
     12 C          18.0883   70.1296   -6.8492 C.3     1  UNL1        0.2383
     13 H          20.1889   69.8915   -9.9003 H       1  UNL1        0.2105
     14 H          16.6774   71.0525   -9.6436 H       1  UNL1        0.2106
     15 O          16.5707   68.2604   -5.3732 O.2     1  UNL1       -0.2464
     16 O          15.0767   71.5012   -2.4570 O.2     1  UNL1       -0.2670
     17 N          17.2941   70.4571   -5.6998 N.ar    1  UNL1       -0.2551
     18 N          15.8274   69.8755   -3.9224 N.ar    1  UNL1       -0.2743
     19 C          16.5687   69.4441   -5.0303 C.ar    1  UNL1        0.3323
     20 C          17.2393   71.7705   -5.2466 C.ar    1  UNL1        0.0869
     21 C          16.5282   72.1659   -4.1884 C.ar    1  UNL1        0.0795
     22 C          15.7414   71.1701   -3.4340 C.ar    1  UNL1        0.2626
     23 H          15.2974   69.1643   -3.4259 H       1  UNL1        0.1734
     24 O          22.1061   72.1303   -3.7052 O.3     1  UNL1       -0.2703
     25 P          23.2864   72.0648   -2.6028 P.3     1  UNL1        0.2208
     26 O          23.9279   73.5486   -2.6574 O.3     1  UNL1       -0.4371
     27 O          24.2734   70.9542   -2.8223 O.2     1  UNL1       -0.5170
     28 O          22.5186   72.0038   -1.1848 O.3     1  UNL1       -0.2858
     29 O          24.2015   72.2310    0.4631 O.3     1  UNL1       -0.3226
     30 O          20.7444   72.0685    2.7655 O.3     1  UNL1       -0.3794
     31 O          21.0686   70.3200    0.4538 O.3     1  UNL1       -0.3775
     32 O          23.4207   72.5956    3.2009 O.3     1  UNL1       -0.3792
     33 C          21.5805   72.3714    1.6522 C.3     1  UNL1        0.1718
     34 C          22.1253   71.0829    1.0266 C.3     1  UNL1        0.1968
     35 C          22.7385   73.2530    2.1280 C.3     1  UNL1        0.1723
     36 C          23.1589   71.4018   -0.0607 C.3     1  UNL1        0.2706
     37 C          23.7224   73.4712    0.9806 C.3     1  UNL1        0.1830
     38 H          20.4250   72.9113    3.1305 H       1  UNL1        0.2105
     39 H          21.4616   69.5214    0.0632 H       1  UNL1        0.2106
     40 H          23.9420   71.8625    2.8323 H       1  UNL1        0.2106
     41 O          25.0590   75.3863    0.7573 O.co2   1  UNL1       -0.5466
     42 O          25.7112   73.8391    2.2993 O.co2   1  UNL1       -0.5466
     43 C          24.9352   74.2194    1.4346 C.2     1  UNL1        0.0799
@<TRIPOS>UNITY_ATOM_ATTR
41 1
charge -1
@<TRIPOS>BOND
     1     1     4    1
     2     1    24    1
     3     1     2    1
     4     1     3    2
     5    25    28    1
     6    25    24    1
     7    25    26    1
     8    25    27    2
     9     6    11    1
    10     6    12    1
    11    29    36    1
    12    29    37    1
    13     7     9    1
    14     7    13    1
    15     8    10    1
    16     8    14    1
    17     4     5    1
    18    28    36    1
    19    30    33    1
    20    30    38    1
    21    31    34    1
    22    31    39    1
    23    32    35    1
    24    32    40    1
    25    41    43   ar
    26    15    19    2
    27    42    43   ar
    28    16    22    2
    29    17    12    1
    30    17    19   ar
    31    17    20   ar
    32    18    19   ar
    33    18    22   ar
    34    18    23    1
    35     9    10    1
    36     9    11    1
    37    10    12    1
    38    11     5    1
    39    33    34    1
    40    33    35    1
    41    34    36    1
    42    35    37    1
    43    37    43    1
    44    20    21   ar
    45    21    22   ar
@<TRIPOS>MOLECULE
UDP-glaA
 43 45 0 0 0
SMALL
GASTEIGER

@<TRIPOS>ATOM
      1 P          23.1979   72.8741   -3.6711 P.3     1  UNL1        0.2189
      2 O          22.6544   71.3621   -3.4821 O.3     1  UNL1       -0.4371
      3 O          24.6125   72.9817   -4.1605 O.2     1  UNL1       -0.5170
      4 O          22.8907   73.5793   -2.2484 O.3     1  UNL1       -0.3112
      5 C          21.9211   74.6122   -2.1997 C.3     1  UNL1        0.1811
      6 O          21.0617   72.8580   -0.8003 O.3     1  UNL1       -0.3308
      7 O          18.9891   74.8355    0.0859 O.3     1  UNL1       -0.3794
      8 O          20.7680   74.8709    2.1523 O.3     1  UNL1       -0.3779
      9 C          20.3626   75.0506   -0.2381 C.3     1  UNL1        0.1713
     10 C          21.2518   74.5276    0.8703 C.3     1  UNL1        0.1895
     11 C          20.7219   74.1293   -1.3964 C.3     1  UNL1        0.1764
     12 C          21.2239   73.0299    0.6173 C.3     1  UNL1        0.2383
     13 H          18.4610   75.1496   -0.6677 H       1  UNL1        0.2105
     14 H          20.7135   75.8411    2.1945 H       1  UNL1        0.2106
     15 O          21.4880   70.2466    1.0158 O.2     1  UNL1       -0.2464
     16 O          25.9213   70.6530    2.2072 O.2     1  UNL1       -0.2670
     17 N          22.4354   72.3814    1.0309 N.ar    1  UNL1       -0.2551
     18 N          23.6953   70.4509    1.6093 N.ar    1  UNL1       -0.2743
     19 C          22.4622   70.9777    1.2031 C.ar    1  UNL1        0.3323
     20 C          23.5810   73.1350    1.2617 C.ar    1  UNL1        0.0869
     21 C          24.7493   72.6177    1.6482 C.ar    1  UNL1        0.0795
     22 C          24.8617   71.1598    1.8516 C.ar    1  UNL1        0.2626
     23 H          23.7377   69.4438    1.7401 H       1  UNL1        0.1734
     24 O          22.0943   73.5361   -4.6503 O.3     1  UNL1       -0.2703
     25 P          21.6125   73.1237   -6.1371 P.3     1  UNL1        0.2208
     26 O          22.8897   72.3315   -6.7346 O.3     1  UNL1       -0.4371
     27 O          21.1510   74.2796   -6.9778 O.2     1  UNL1       -0.5170
     28 O          20.4964   71.9820   -5.9033 O.3     1  UNL1       -0.2858
     29 O          18.2378   72.1861   -6.5787 O.3     1  UNL1       -0.3226
     30 O          17.9856   69.3636   -3.5375 O.3     1  UNL1       -0.3794
     31 O          19.7350   71.6814   -3.2665 O.3     1  UNL1       -0.3775
     32 O          16.2864   70.4116   -5.4464 O.3     1  UNL1       -0.3792
     33 C          18.5389   70.0739   -4.6419 C.3     1  UNL1        0.1718
     34 C          18.7441   71.5488   -4.2800 C.3     1  UNL1        0.1968
     35 C          17.5862   69.9548   -5.8346 C.3     1  UNL1        0.1723
     36 C          19.1761   72.3551   -5.5111 C.3     1  UNL1        0.2706
     37 C          18.0905   70.8258   -6.9832 C.3     1  UNL1        0.1830
     38 H          17.8709   68.4378   -3.8119 H       1  UNL1        0.2105
     39 H          19.8368   72.6295   -3.0780 H       1  UNL1        0.2106
     40 H          16.3076   71.3811   -5.3775 H       1  UNL1        0.2106
     41 O          17.5637   70.0578   -9.1364 O.co2   1  UNL1       -0.5466
     42 O          16.0745   71.4707   -8.1450 O.co2   1  UNL1       -0.5466
     43 C          17.1227   70.8419   -8.1234 C.2     1  UNL1        0.0799
@<TRIPOS>UNITY_ATOM_ATTR
41 1
charge -1
@<TRIPOS>BOND
     1     1     4    1
     2     1    24    1
     3     1     2    1
     4     1     3    2
     5    25    28    1
     6    25    24    1
     7    25    26    1
     8    25    27    2
     9     6    11    1
    10     6    12    1
    11    29    36    1
    12    29    37    1
    13     7     9    1
    14     7    13    1
    15     8    10    1
    16     8    14    1
    17     4     5    1
    18    28    36    1
    19    30    33    1
    20    30    38    1
    21    31    34    1
    22    31    39    1
    23    32    35    1
    24    32    40    1
    25    41    43   ar
    26    15    19    2
    27    42    43   ar
    28    16    22    2
    29    17    12    1
    30    17    19   ar
    31    17    20   ar
    32    18    19   ar
    33    18    22   ar
    34    18    23    1
    35     9    10    1
    36     9    11    1
    37    10    12    1
    38    11     5    1
    39    33    34    1
    40    33    35    1
    41    34    36    1
    42    35    37    1
    43    37    43    1
    44    20    21   ar
    45    21    22   ar
@<TRIPOS>MOLECULE
UDP-glaA
 43 45 0 0 0
SMALL
GASTEIGER

@<TRIPOS>ATOM
      1 P          21.9290   72.4898   -5.7941 P.3     1  UNL1        0.2189
      2 O          21.3755   73.8871   -5.1953 O.3     1  UNL1       -0.4371
      3 O          23.0451   72.6251   -6.7882 O.2     1  UNL1       -0.5170
      4 O          20.5990   71.7406   -6.3282 O.3     1  UNL1       -0.3112
      5 C          20.1165   72.0575   -7.6227 C.3     1  UNL1        0.1811
      6 O          18.9638   69.9992   -7.1659 O.3     1  UNL1       -0.3308
      7 O          18.1528   70.0302  -10.0526 O.3     1  UNL1       -0.3794
      8 O          15.9091   70.9341   -8.7939 O.3     1  UNL1       -0.3779
      9 C          18.3073   71.1220   -9.1460 C.3     1  UNL1        0.1713
     10 C          17.1543   71.1574   -8.1653 C.3     1  UNL1        0.1895
     11 C          19.4897   70.8139   -8.2368 C.3     1  UNL1        0.1764
     12 C          17.5278   70.0467   -7.1985 C.3     1  UNL1        0.2383
     13 H          18.9318   70.0243  -10.6345 H       1  UNL1        0.2105
     14 H          15.7955   71.6228   -9.4714 H       1  UNL1        0.2106
     15 O          16.2979   68.0924   -5.5726 O.2     1  UNL1       -0.2464
     16 O          15.6855   71.0854   -2.1221 O.2     1  UNL1       -0.2670
     17 N          17.0382   70.2875   -5.8712 N.ar    1  UNL1       -0.2551
     18 N          15.9933   69.5842   -3.8557 N.ar    1  UNL1       -0.2743
     19 C          16.4358   69.2378   -5.1391 C.ar    1  UNL1        0.3323
     20 C          17.1569   71.5530   -5.3076 C.ar    1  UNL1        0.0869
     21 C          16.7305   71.8674   -4.0824 C.ar    1  UNL1        0.0795
     22 C          16.0889   70.8287   -3.2523 C.ar    1  UNL1        0.2626
     23 H          15.5564   68.8454   -3.3113 H       1  UNL1        0.1734
     24 O          22.3092   71.6512   -4.4647 O.3     1  UNL1       -0.2703
     25 P          23.4134   71.9267   -3.3169 P.3     1  UNL1        0.2208
     26 O          24.1986   73.2311   -3.8629 O.3     1  UNL1       -0.4371
     27 O          24.2982   70.7503   -3.0184 O.2     1  UNL1       -0.5170
     28 O          22.5647   72.4604   -2.0525 O.3     1  UNL1       -0.2858
     29 O          22.6424   74.3161   -0.5863 O.3     1  UNL1       -0.3226
     30 O          21.9255   71.1674    2.0312 O.3     1  UNL1       -0.3794
     31 O          23.8064   70.8600   -0.1765 O.3     1  UNL1       -0.3775
     32 O          21.9879   73.9248    2.1809 O.3     1  UNL1       -0.3792
     33 C          21.8676   71.9277    0.8274 C.3     1  UNL1        0.1718
     34 C          23.2724   72.1112    0.2432 C.3     1  UNL1        0.1968
     35 C          21.2450   73.2926    1.1333 C.3     1  UNL1        0.1723
     36 C          23.2419   73.0693   -0.9540 C.3     1  UNL1        0.2706
     37 C          21.3042   74.1744   -0.1122 C.3     1  UNL1        0.1830
     38 H          21.0169   71.0786    2.3660 H       1  UNL1        0.2105
     39 H          24.6895   71.0272   -0.5466 H       1  UNL1        0.2106
     40 H          22.8348   74.2331    1.8163 H       1  UNL1        0.2106
     41 O          21.8613   76.3651    0.5158 O.co2   1  UNL1       -0.5466
     42 O          19.6603   75.9285    0.1129 O.co2   1  UNL1       -0.5466
     43 C          20.8247   75.5615    0.1761 C.2     1  UNL1        0.0799
@<TRIPOS>UNITY_ATOM_ATTR
41 1
charge -1
@<TRIPOS>BOND
     1     1     4    1
     2     1    24    1
     3     1     2    1
     4     1     3    2
     5    25    28    1
     6    25    24    1
     7    25    26    1
     8    25    27    2
     9     6    11    1
    10     6    12    1
    11    29    36    1
    12    29    37    1
    13     7     9    1
    14     7    13    1
    15     8    10    1
    16     8    14    1
    17     4     5    1
    18    28    36    1
    19    30    33    1
    20    30    38    1
    21    31    34    1
    22    31    39    1
    23    32    35    1
    24    32    40    1
    25    41    43   ar
    26    15    19    2
    27    42    43   ar
    28    16    22    2
    29    17    12    1
    30    17    19   ar
    31    17    20   ar
    32    18    19   ar
    33    18    22   ar
    34    18    23    1
    35     9    10    1
    36     9    11    1
    37    10    12    1
    38    11     5    1
    39    33    34    1
    40    33    35    1
    41    34    36    1
    42    35    37    1
    43    37    43    1
    44    20    21   ar
    45    21    22   ar
@<TRIPOS>MOLECULE
UDP-glaA
 43 45 0 0 0
SMALL
GASTEIGER

@<TRIPOS>ATOM
      1 P          21.5616   71.6568    1.1544 P.3     1  UNL1        0.2189
      2 O          21.7582   70.0510    1.1739 O.3     1  UNL1       -0.4371
      3 O          20.5655   72.1845    2.1451 O.2     1  UNL1       -0.5170
      4 O          21.2554   71.9932   -0.3975 O.3     1  UNL1       -0.3112
      5 C          22.0880   72.9257   -1.0656 C.3     1  UNL1        0.1811
      6 O          22.2186   70.9593   -2.4407 O.3     1  UNL1       -0.3308
      7 O          24.1551   72.4999   -4.1342 O.3     1  UNL1       -0.3794
      8 O          21.8390   72.6828   -5.5618 O.3     1  UNL1       -0.3779
      9 C          22.9954   72.9613   -3.4414 C.3     1  UNL1        0.1713
     10 C          21.7409   72.5155   -4.1625 C.3     1  UNL1        0.1895
     11 C          22.8972   72.1959   -2.1283 C.3     1  UNL1        0.1764
     12 C          21.6440   71.0553   -3.7544 C.3     1  UNL1        0.2383
     13 H          24.9307   72.7748   -3.6161 H       1  UNL1        0.2105
     14 H          22.0082   73.6253   -5.7327 H       1  UNL1        0.2106
     15 O          20.1017   70.3974   -6.0268 O.2     1  UNL1       -0.2464
     16 O          16.4496   69.2754   -3.4495 O.2     1  UNL1       -0.2670
     17 N          20.2879   70.5883   -3.7064 N.ar    1  UNL1       -0.2551
     18 N          18.2839   69.8396   -4.7419 N.ar    1  UNL1       -0.2743
     19 C          19.6018   70.2863   -4.9059 C.ar    1  UNL1        0.3323
     20 C          19.6511   70.4338   -2.4800 C.ar    1  UNL1        0.0869
     21 C          18.3942   70.0064   -2.3403 C.ar    1  UNL1        0.0795
     22 C          17.6077   69.6704   -3.5437 C.ar    1  UNL1        0.2626
     23 H          17.7711   69.6171   -5.5908 H       1  UNL1        0.1734
     24 O          23.0683   72.2087    1.3552 O.3     1  UNL1       -0.2703
     25 P          24.1448   71.9483    2.5324 P.3     1  UNL1        0.2208
     26 O          25.3990   72.8734    2.0996 O.3     1  UNL1       -0.4371
     27 O          24.4862   70.5014    2.7460 O.2     1  UNL1       -0.5170
     28 O          23.5218   72.6843    3.8263 O.3     1  UNL1       -0.2858
     29 O          22.0192   74.5050    3.9892 O.3     1  UNL1       -0.3226
     30 O          24.4193   75.0542    7.3384 O.3     1  UNL1       -0.3794
     31 O          25.5893   74.2365    4.7951 O.3     1  UNL1       -0.3775
     32 O          22.0981   76.1624    6.3313 O.3     1  UNL1       -0.3792
     33 C          23.7031   74.3571    6.3229 C.3     1  UNL1        0.1718
     34 C          24.2556   74.7134    4.9387 C.3     1  UNL1        0.1968
     35 C          22.2228   74.7386    6.4101 C.3     1  UNL1        0.1723
     36 C          23.3845   74.1046    3.8328 C.3     1  UNL1        0.2706
     37 C          21.4620   74.1134    5.2429 C.3     1  UNL1        0.1830
     38 H          24.0350   74.8008    8.1950 H       1  UNL1        0.2105
     39 H          25.8923   74.4763    3.9032 H       1  UNL1        0.2106
     40 H          22.2619   76.4364    5.4130 H       1  UNL1        0.2106
     41 O          19.8152   75.3845    4.1585 O.co2   1  UNL1       -0.5466
     42 O          19.1816   74.2408    6.0260 O.co2   1  UNL1       -0.5466
     43 C          20.0364   74.5648    5.2143 C.2     1  UNL1        0.0799
@<TRIPOS>UNITY_ATOM_ATTR
41 1
charge -1
@<TRIPOS>BOND
     1     1     4    1
     2     1    24    1
     3     1     2    1
     4     1     3    2
     5    25    28    1
     6    25    24    1
     7    25    26    1
     8    25    27    2
     9     6    11    1
    10     6    12    1
    11    29    36    1
    12    29    37    1
    13     7     9    1
    14     7    13    1
    15     8    10    1
    16     8    14    1
    17     4     5    1
    18    28    36    1
    19    30    33    1
    20    30    38    1
    21    31    34    1
    22    31    39    1
    23    32    35    1
    24    32    40    1
    25    41    43   ar
    26    15    19    2
    27    42    43   ar
    28    16    22    2
    29    17    12    1
    30    17    19   ar
    31    17    20   ar
    32    18    19   ar
    33    18    22   ar
    34    18    23    1
    35     9    10    1
    36     9    11    1
    37    10    12    1
    38    11     5    1
    39    33    34    1
    40    33    35    1
    41    34    36    1
    42    35    37    1
    43    37    43    1
    44    20    21   ar
    45    21    22   ar
@<TRIPOS>MOLECULE
UDP-glaA
 43 45 0 0 0
SMALL
GASTEIGER

@<TRIPOS>ATOM
      1 P          22.6896   73.1403   -4.3641 P.3     1  UNL1        0.2189
      2 O          24.1838   72.5243   -4.4373 O.3     1  UNL1       -0.4371
      3 O          22.6170   74.6368   -4.4493 O.2     1  UNL1       -0.5170
      4 O          22.0614   72.4810   -3.0276 O.3     1  UNL1       -0.3112
      5 C          21.3800   71.2430   -3.1388 C.3     1  UNL1        0.1811
      6 O          20.6462   70.5684   -0.9523 O.3     1  UNL1       -0.3308
      7 O          18.4101   72.5356   -1.3005 O.3     1  UNL1       -0.3794
      8 O          20.1534   73.8924    0.2981 O.3     1  UNL1       -0.3779
      9 C          19.7659   72.6225   -1.7385 C.3     1  UNL1        0.1713
     10 C          20.6798   72.9058   -0.5650 C.3     1  UNL1        0.1895
     11 C          20.2131   71.2295   -2.1617 C.3     1  UNL1        0.1764
     12 C          20.7757   71.5418    0.0970 C.3     1  UNL1        0.2383
     13 H          17.8682   72.3148   -2.0772 H       1  UNL1        0.2105
     14 H          20.0205   74.7002   -0.2272 H       1  UNL1        0.2106
     15 O          21.1969   71.9665    2.8570 O.2     1  UNL1       -0.2464
     16 O          25.6322   70.7522    2.5533 O.2     1  UNL1       -0.2670
     17 N          22.0299   71.3439    0.7656 N.ar    1  UNL1       -0.2551
     18 N          23.4054   71.3620    2.7039 N.ar    1  UNL1       -0.2743
     19 C          22.1358   71.5863    2.1552 C.ar    1  UNL1        0.3323
     20 C          23.1391   70.9141    0.0455 C.ar    1  UNL1        0.0869
     21 C          24.3426   70.7043    0.5833 C.ar    1  UNL1        0.0795
     22 C          24.5382   70.9352    2.0284 C.ar    1  UNL1        0.2626
     23 H          23.5051   71.5305    3.7012 H       1  UNL1        0.1734
     24 O          21.9174   72.3598   -5.5514 O.3     1  UNL1       -0.2703
     25 P          20.9952   72.9119   -6.7586 P.3     1  UNL1        0.2208
     26 O          21.5629   72.1215   -8.0506 O.3     1  UNL1       -0.4371
     27 O          20.9934   74.4073   -6.8981 O.2     1  UNL1       -0.5170
     28 O          19.5411   72.2656   -6.4909 O.3     1  UNL1       -0.2858
     29 O          18.8423   70.2302   -5.5069 O.3     1  UNL1       -0.3226
     30 O          16.0728   70.7133   -8.5690 O.3     1  UNL1       -0.3794
     31 O          18.8888   71.3337   -9.0066 O.3     1  UNL1       -0.3775
     32 O          16.4047   69.0166   -6.4148 O.3     1  UNL1       -0.3792
     33 C          16.9751   71.0821   -7.5297 C.3     1  UNL1        0.1718
     34 C          18.3983   70.6281   -7.8715 C.3     1  UNL1        0.1968
     35 C          16.5173   70.4305   -6.2220 C.3     1  UNL1        0.1723
     36 C          19.3435   70.8661   -6.6873 C.3     1  UNL1        0.2706
     37 C          17.5484   70.6966   -5.1274 C.3     1  UNL1        0.1830
     38 H          15.1864   71.0175   -8.3096 H       1  UNL1        0.2105
     39 H          19.7928   71.0207   -9.1785 H       1  UNL1        0.2106
     40 H          17.2994   68.6384   -6.4567 H       1  UNL1        0.2106
     41 O          16.6895   70.8218   -2.9479 O.co2   1  UNL1       -0.5466
     42 O          17.3665   68.7720   -3.6808 O.co2   1  UNL1       -0.5466
     43 C          17.2069   69.9699   -3.8656 C.2     1  UNL1        0.0799
@<TRIPOS>UNITY_ATOM_ATTR
41 1
charge -1
@<TRIPOS>BOND
     1     1     4    1
     2     1    24    1
     3     1     2    1
     4     1     3    2
     5    25    28    1
     6    25    24    1
     7    25    26    1
     8    25    27    2
     9     6    11    1
    10     6    12    1
    11    29    36    1
    12    29    37    1
    13     7     9    1
    14     7    13    1
    15     8    10    1
    16     8    14    1
    17     4     5    1
    18    28    36    1
    19    30    33    1
    20    30    38    1
    21    31    34    1
    22    31    39    1
    23    32    35    1
    24    32    40    1
    25    41    43   ar
    26    15    19    2
    27    42    43   ar
    28    16    22    2
    29    17    12    1
    30    17    19   ar
    31    17    20   ar
    32    18    19   ar
    33    18    22   ar
    34    18    23    1
    35     9    10    1
    36     9    11    1
    37    10    12    1
    38    11     5    1
    39    33    34    1
    40    33    35    1
    41    34    36    1
    42    35    37    1
    43    37    43    1
    44    20    21   ar
    45    21    22   ar
