@<TRIPOS>MOLECULE
UDP-glaA
 43 45 0 0 0
SMALL
GASTEIGER

@<TRIPOS>ATOM
      1 P          22.6123   72.8169   -4.0720 P.3     1  UNL1        0.2189
      2 O          23.0779   73.3777   -5.5163 O.3     1  UNL1       -0.4371
      3 O          23.4627   71.7114   -3.5181 O.2     1  UNL1       -0.5170
      4 O          21.0472   72.4645   -4.2768 O.3     1  UNL1       -0.3112
      5 C          20.4637   71.4689   -3.4537 C.3     1  UNL1        0.1811
      6 O          18.4994   72.2288   -4.6106 O.3     1  UNL1       -0.3308
      7 O          16.9282   70.8814   -2.4410 O.3     1  UNL1       -0.3794
      8 O          16.7772   69.0864   -4.4881 O.3     1  UNL1       -0.3779
      9 C          18.1554   70.4801   -3.0498 C.3     1  UNL1        0.1713
     10 C          17.8999   69.9426   -4.4420 C.3     1  UNL1        0.1895
     11 C          18.9696   71.7348   -3.3370 C.3     1  UNL1        0.1764
     12 C          17.6942   71.2187   -5.2403 C.3     1  UNL1        0.2383
     13 H          17.1453   71.2540   -1.5694 H       1  UNL1        0.2105
     14 H          16.9423   68.3538   -3.8699 H       1  UNL1        0.2106
     15 O          16.0180   70.3083   -7.3229 O.2     1  UNL1       -0.2464
     16 O          19.3733   70.7289  -10.4541 O.2     1  UNL1       -0.2670
     17 N          18.1033   71.0811   -6.6089 N.ar    1  UNL1       -0.2551
     18 N          17.6901   70.5179   -8.8806 N.ar    1  UNL1       -0.2743
     19 C          17.1843   70.6142   -7.5775 C.ar    1  UNL1        0.3323
     20 C          19.4031   71.4071   -6.9799 C.ar    1  UNL1        0.0869
     21 C          19.8700   71.3103   -8.2267 C.ar    1  UNL1        0.0795
     22 C          18.9747   70.8299   -9.2978 C.ar    1  UNL1        0.2626
     23 H          17.0472   70.1838   -9.5935 H       1  UNL1        0.1734
     24 O          22.5676   74.1528   -3.1618 O.3     1  UNL1       -0.2703
     25 P          23.6642   74.7904   -2.1600 P.3     1  UNL1        0.2208
     26 O          23.0947   76.2791   -1.8853 O.3     1  UNL1       -0.4371
     27 O          25.0718   74.7516   -2.6822 O.2     1  UNL1       -0.5170
     28 O          23.4486   74.0070   -0.7658 O.3     1  UNL1       -0.2858
     29 O          21.7631   72.3889   -0.3911 O.3     1  UNL1       -0.3226
     30 O          22.5634   73.7216    3.4641 O.3     1  UNL1       -0.3794
     31 O          22.4324   75.6063    1.2422 O.3     1  UNL1       -0.3775
     32 O          21.0832   71.6952    2.3098 O.3     1  UNL1       -0.3792
     33 C          22.8145   73.3674    2.1070 C.3     1  UNL1        0.1718
     34 C          21.9951   74.2538    1.1629 C.3     1  UNL1        0.1968
     35 C          22.4402   71.8970    1.9016 C.3     1  UNL1        0.1723
     36 C          22.1256   73.7697   -0.2866 C.3     1  UNL1        0.2706
     37 C          22.5673   71.5368    0.4230 C.3     1  UNL1        0.1830
     38 H          23.0995   73.1350    4.0244 H       1  UNL1        0.2105
     39 H          21.8931   76.1259    0.6225 H       1  UNL1        0.2106
     40 H          20.4976   72.0861    1.6395 H       1  UNL1        0.2106
     41 O          23.0562   69.2424    0.4403 O.co2   1  UNL1       -0.5466
     42 O          20.9750   69.8551   -0.2599 O.co2   1  UNL1       -0.5466
     43 C          22.0875   70.1457    0.1555 C.2     1  UNL1        0.0799
@<TRIPOS>UNITY_ATOM_ATTR
41 1
charge -1
@<TRIPOS>BOND
     1     1     4    1
     2     1    24    1
     3     1     2    1
     4     1     3    2
     5    25    28    1
     6    25    24    1
     7    25    26    1
     8    25    27    2
     9     6    11    1
    10     6    12    1
    11    29    36    1
    12    29    37    1
    13     7     9    1
    14     7    13    1
    15     8    10    1
    16     8    14    1
    17     4     5    1
    18    28    36    1
    19    30    33    1
    20    30    38    1
    21    31    34    1
    22    31    39    1
    23    32    35    1
    24    32    40    1
    25    41    43   ar
    26    15    19    2
    27    42    43   ar
    28    16    22    2
    29    17    12    1
    30    17    19   ar
    31    17    20   ar
    32    18    19   ar
    33    18    22   ar
    34    18    23    1
    35     9    10    1
    36     9    11    1
    37    10    12    1
    38    11     5    1
    39    33    34    1
    40    33    35    1
    41    34    36    1
    42    35    37    1
    43    37    43    1
    44    20    21   ar
    45    21    22   ar
@<TRIPOS>MOLECULE
UDP-glaA
 43 45 0 0 0
SMALL
GASTEIGER

@<TRIPOS>ATOM
      1 P          21.9112   74.2096   -5.7621 P.3     1  UNL1        0.2189
      2 O          20.6562   74.9881   -5.1016 O.3     1  UNL1       -0.4371
      3 O          23.1604   75.0289   -5.9046 O.2     1  UNL1       -0.5170
      4 O          21.3118   73.5973   -7.1338 O.3     1  UNL1       -0.3112
      5 C          20.1624   74.2028   -7.7005 C.3     1  UNL1        0.1811
      6 O          19.6114   71.9283   -8.2456 O.3     1  UNL1       -0.3308
      7 O          17.8618   73.0650  -10.3992 O.3     1  UNL1       -0.3794
      8 O          16.0701   72.4565   -8.4357 O.3     1  UNL1       -0.3779
      9 C          18.1288   73.5712   -9.0915 C.3     1  UNL1        0.1713
     10 C          17.3973   72.7497   -8.0510 C.3     1  UNL1        0.1895
     11 C          19.5866   73.2771   -8.7626 C.3     1  UNL1        0.1764
     12 C          18.2672   71.5074   -7.9608 C.3     1  UNL1        0.2383
     13 H          18.3807   73.5961  -11.0271 H       1  UNL1        0.2105
     14 H          15.6129   73.3031   -8.5781 H       1  UNL1        0.2106
     15 O          16.0995   70.0017   -6.9561 O.2     1  UNL1       -0.2464
     16 O          18.2418   69.2522   -2.9452 O.2     1  UNL1       -0.2670
     17 N          18.2319   70.9069   -6.6579 N.ar    1  UNL1       -0.2551
     18 N          17.1675   69.6299   -4.9593 N.ar    1  UNL1       -0.2743
     19 C          17.0948   70.1713   -6.2495 C.ar    1  UNL1        0.3323
     20 C          19.3161   71.0498   -5.7992 C.ar    1  UNL1        0.0869
     21 C          19.3704   70.5271   -4.5722 C.ar    1  UNL1        0.0795
     22 C          18.2236   69.7453   -4.0688 C.ar    1  UNL1        0.2626
     23 H          16.3610   69.0975   -4.6443 H       1  UNL1        0.1734
     24 O          22.0653   72.9050   -4.8190 O.3     1  UNL1       -0.2703
     25 P          23.1146   72.5698   -3.6361 P.3     1  UNL1        0.2208
     26 O          24.4541   73.3511   -4.0959 O.3     1  UNL1       -0.4371
     27 O          23.3090   71.1022   -3.3827 O.2     1  UNL1       -0.5170
     28 O          22.5742   73.4004   -2.3625 O.3     1  UNL1       -0.2858
     29 O          21.5131   71.6576   -1.1641 O.3     1  UNL1       -0.3226
     30 O          21.5997   74.7197    1.6458 O.3     1  UNL1       -0.3794
     31 O          20.9676   75.2866   -1.1444 O.3     1  UNL1       -0.3775
     32 O          20.9552   72.0338    1.6262 O.3     1  UNL1       -0.3792
     33 C          22.0314   73.9120    0.5542 C.3     1  UNL1        0.1718
     34 C          21.0161   73.9754   -0.5919 C.3     1  UNL1        0.1968
     35 C          22.1859   72.4675    1.0378 C.3     1  UNL1        0.1723
     36 C          21.3834   72.9791   -1.6987 C.3     1  UNL1        0.2706
     37 C          22.5099   71.5612   -0.1479 C.3     1  UNL1        0.1830
     38 H          22.2694   74.6476    2.3470 H       1  UNL1        0.2105
     39 H          20.3207   75.2755   -1.8699 H       1  UNL1        0.2106
     40 H          20.3110   71.8777    0.9151 H       1  UNL1        0.2106
     41 O          23.8042   69.6338    0.1892 O.co2   1  UNL1       -0.5466
     42 O          21.5687   69.4687    0.6042 O.co2   1  UNL1       -0.5466
     43 C          22.5420   70.1216    0.2565 C.2     1  UNL1        0.0799
@<TRIPOS>UNITY_ATOM_ATTR
41 1
charge -1
@<TRIPOS>BOND
     1     1     4    1
     2     1    24    1
     3     1     2    1
     4     1     3    2
     5    25    28    1
     6    25    24    1
     7    25    26    1
     8    25    27    2
     9     6    11    1
    10     6    12    1
    11    29    36    1
    12    29    37    1
    13     7     9    1
    14     7    13    1
    15     8    10    1
    16     8    14    1
    17     4     5    1
    18    28    36    1
    19    30    33    1
    20    30    38    1
    21    31    34    1
    22    31    39    1
    23    32    35    1
    24    32    40    1
    25    41    43   ar
    26    15    19    2
    27    42    43   ar
    28    16    22    2
    29    17    12    1
    30    17    19   ar
    31    17    20   ar
    32    18    19   ar
    33    18    22   ar
    34    18    23    1
    35     9    10    1
    36     9    11    1
    37    10    12    1
    38    11     5    1
    39    33    34    1
    40    33    35    1
    41    34    36    1
    42    35    37    1
    43    37    43    1
    44    20    21   ar
    45    21    22   ar
@<TRIPOS>MOLECULE
UDP-glaA
 43 45 0 0 0
SMALL
GASTEIGER

@<TRIPOS>ATOM
      1 P          22.9660   71.6772   -2.8444 P.3     1  UNL1        0.2189
      2 O          23.7953   72.9856   -3.3110 O.3     1  UNL1       -0.4371
      3 O          23.5840   70.3652   -3.2303 O.2     1  UNL1       -0.5170
      4 O          21.4722   71.9423   -3.4047 O.3     1  UNL1       -0.3112
      5 C          20.5986   70.8361   -3.5544 C.3     1  UNL1        0.1811
      6 O          18.7632   71.9119   -4.6717 O.3     1  UNL1       -0.3308
      7 O          17.0201   70.7501   -2.5262 O.3     1  UNL1       -0.3794
      8 O          16.5943   69.0572   -4.6211 O.3     1  UNL1       -0.3779
      9 C          18.1711   70.1891   -3.1571 C.3     1  UNL1        0.1713
     10 C          17.8318   69.7359   -4.5614 C.3     1  UNL1        0.1895
     11 C          19.1611   71.3170   -3.4167 C.3     1  UNL1        0.1764
     12 C          17.8139   71.0509   -5.3219 C.3     1  UNL1        0.2383
     13 H          17.2943   71.0610   -1.6466 H       1  UNL1        0.2105
     14 H          16.6519   68.2907   -4.0251 H       1  UNL1        0.2106
     15 O          16.0127   70.4485   -7.4119 O.2     1  UNL1       -0.2464
     16 O          19.3760   70.4694  -10.5625 O.2     1  UNL1       -0.2670
     17 N          18.1913   70.8939   -6.6975 N.ar    1  UNL1       -0.2551
     18 N          17.6887   70.4588   -8.9793 N.ar    1  UNL1       -0.2743
     19 C          17.2094   70.5907   -7.6694 C.ar    1  UNL1        0.3323
     20 C          19.5224   71.0401   -7.0720 C.ar    1  UNL1        0.0869
     21 C          19.9635   70.9116   -8.3253 C.ar    1  UNL1        0.0795
     22 C          19.0026   70.5946   -9.4003 C.ar    1  UNL1        0.2626
     23 H          17.0005   70.2403   -9.6947 H       1  UNL1        0.1734
     24 O          22.8014   71.9015   -1.2514 O.3     1  UNL1       -0.2703
     25 P          22.4395   70.8636   -0.0663 P.3     1  UNL1        0.2208
     26 O          23.6948   69.8437   -0.0701 O.3     1  UNL1       -0.4371
     27 O          21.1007   70.1996   -0.2166 O.2     1  UNL1       -0.5170
     28 O          22.6112   71.7177    1.2919 O.3     1  UNL1       -0.2858
     29 O          21.7530   72.4125    3.3848 O.3     1  UNL1       -0.3226
     30 O          21.0908   75.7636    1.0161 O.3     1  UNL1       -0.3794
     31 O          20.6166   73.0863   -0.0389 O.3     1  UNL1       -0.3775
     32 O          20.9026   75.1358    3.6994 O.3     1  UNL1       -0.3792
     33 C          21.7423   74.5927    1.5006 C.3     1  UNL1        0.1718
     34 C          20.8331   73.3697    1.3394 C.3     1  UNL1        0.1968
     35 C          22.0909   74.7952    2.9777 C.3     1  UNL1        0.1723
     36 C          21.4536   72.1390    2.0121 C.3     1  UNL1        0.2706
     37 C          22.6608   73.5004    3.5528 C.3     1  UNL1        0.1830
     38 H          21.7004   76.5110    1.1400 H       1  UNL1        0.2105
     39 H          20.0453   72.3015   -0.0908 H       1  UNL1        0.2106
     40 H          20.3566   74.3366    3.7903 H       1  UNL1        0.2106
     41 O          21.8768   73.0454    5.7166 O.co2   1  UNL1       -0.5466
     42 O          23.8700   74.1381    5.5430 O.co2   1  UNL1       -0.5466
     43 C          22.8951   73.6123    5.0257 C.2     1  UNL1        0.0799
@<TRIPOS>UNITY_ATOM_ATTR
41 1
charge -1
@<TRIPOS>BOND
     1     1     4    1
     2     1    24    1
     3     1     2    1
     4     1     3    2
     5    25    28    1
     6    25    24    1
     7    25    26    1
     8    25    27    2
     9     6    11    1
    10     6    12    1
    11    29    36    1
    12    29    37    1
    13     7     9    1
    14     7    13    1
    15     8    10    1
    16     8    14    1
    17     4     5    1
    18    28    36    1
    19    30    33    1
    20    30    38    1
    21    31    34    1
    22    31    39    1
    23    32    35    1
    24    32    40    1
    25    41    43   ar
    26    15    19    2
    27    42    43   ar
    28    16    22    2
    29    17    12    1
    30    17    19   ar
    31    17    20   ar
    32    18    19   ar
    33    18    22   ar
    34    18    23    1
    35     9    10    1
    36     9    11    1
    37    10    12    1
    38    11     5    1
    39    33    34    1
    40    33    35    1
    41    34    36    1
    42    35    37    1
    43    37    43    1
    44    20    21   ar
    45    21    22   ar
@<TRIPOS>MOLECULE
UDP-glaA
 43 45 0 0 0
SMALL
GASTEIGER

@<TRIPOS>ATOM
      1 P          22.1637   73.8786   -4.9761 P.3     1  UNL1        0.2189
      2 O          23.4689   74.7303   -5.4098 O.3     1  UNL1       -0.4371
      3 O          22.4555   72.6048   -4.2383 O.2     1  UNL1       -0.5170
      4 O          21.3280   73.7186   -6.3515 O.3     1  UNL1       -0.3112
      5 C          21.7878   72.7908   -7.3195 C.3     1  UNL1        0.1811
      6 O          20.0453   71.2277   -7.8624 O.3     1  UNL1       -0.3308
      7 O          18.8373   73.4298   -9.5004 O.3     1  UNL1       -0.3794
      8 O          17.3329   73.4849   -7.2267 O.3     1  UNL1       -0.3779
      9 C          19.5348   73.5072   -8.2573 C.3     1  UNL1        0.1713
     10 C          18.6575   73.0035   -7.1306 C.3     1  UNL1        0.1895
     11 C          20.6509   72.4712   -8.2797 C.3     1  UNL1        0.1764
     12 C          18.7461   71.4976   -7.3106 C.3     1  UNL1        0.2383
     13 H          19.4500   73.7248  -10.1954 H       1  UNL1        0.2105
     14 H          17.3730   74.4567   -7.2130 H       1  UNL1        0.2106
     15 O          16.2844   70.6256   -6.2357 O.2     1  UNL1       -0.2464
     16 O          18.3393   68.7864   -2.5434 O.2     1  UNL1       -0.2670
     17 N          18.6086   70.7883   -6.0707 N.ar    1  UNL1       -0.2551
     18 N          17.3092   69.7108   -4.3975 N.ar    1  UNL1       -0.2743
     19 C          17.3267   70.3960   -5.6195 C.ar    1  UNL1        0.3323
     20 C          19.7366   70.4882   -5.3151 C.ar    1  UNL1        0.0869
     21 C          19.7035   69.8337   -4.1522 C.ar    1  UNL1        0.0795
     22 C          18.4040   69.3897   -3.6100 C.ar    1  UNL1        0.2626
     23 H          16.3983   69.4195   -4.0533 H       1  UNL1        0.1734
     24 O          21.2894   74.9543   -4.1431 O.3     1  UNL1       -0.2703
     25 P          20.1227   74.7486   -3.0436 P.3     1  UNL1        0.2208
     26 O          19.2573   73.5220   -3.6460 O.3     1  UNL1       -0.4371
     27 O          19.3242   75.9872   -2.7538 O.2     1  UNL1       -0.5170
     28 O          20.8758   74.1253   -1.7598 O.3     1  UNL1       -0.2858
     29 O          20.3139   72.0695   -0.7316 O.3     1  UNL1       -0.3226
     30 O          22.1534   74.1245    2.3784 O.3     1  UNL1       -0.3794
     31 O          20.3253   75.5007    0.5700 O.3     1  UNL1       -0.3775
     32 O          21.2366   71.5565    1.9374 O.3     1  UNL1       -0.3792
     33 C          21.8907   73.7028    1.0429 C.3     1  UNL1        0.1718
     34 C          20.4647   74.0852    0.6324 C.3     1  UNL1        0.1968
     35 C          22.0709   72.1846    0.9585 C.3     1  UNL1        0.1723
     36 C          20.1144   73.4869   -0.7357 C.3     1  UNL1        0.2706
     37 C          21.6565   71.6949   -0.4273 C.3     1  UNL1        0.1830
     38 H          23.0635   73.8602    2.5959 H       1  UNL1        0.2105
     39 H          19.4123   75.6938    0.2979 H       1  UNL1        0.2106
     40 H          20.3139   71.6074    1.6354 H       1  UNL1        0.2106
     41 O          21.7875   69.6536    0.7214 O.co2   1  UNL1       -0.5466
     42 O          21.6418   69.5582   -1.5516 O.co2   1  UNL1       -0.5466
     43 C          21.6930   70.2022   -0.5138 C.2     1  UNL1        0.0799
@<TRIPOS>UNITY_ATOM_ATTR
41 1
charge -1
@<TRIPOS>BOND
     1     1     4    1
     2     1    24    1
     3     1     2    1
     4     1     3    2
     5    25    28    1
     6    25    24    1
     7    25    26    1
     8    25    27    2
     9     6    11    1
    10     6    12    1
    11    29    36    1
    12    29    37    1
    13     7     9    1
    14     7    13    1
    15     8    10    1
    16     8    14    1
    17     4     5    1
    18    28    36    1
    19    30    33    1
    20    30    38    1
    21    31    34    1
    22    31    39    1
    23    32    35    1
    24    32    40    1
    25    41    43   ar
    26    15    19    2
    27    42    43   ar
    28    16    22    2
    29    17    12    1
    30    17    19   ar
    31    17    20   ar
    32    18    19   ar
    33    18    22   ar
    34    18    23    1
    35     9    10    1
    36     9    11    1
    37    10    12    1
    38    11     5    1
    39    33    34    1
    40    33    35    1
    41    34    36    1
    42    35    37    1
    43    37    43    1
    44    20    21   ar
    45    21    22   ar
@<TRIPOS>MOLECULE
UDP-glaA
 43 45 0 0 0
SMALL
GASTEIGER

@<TRIPOS>ATOM
      1 P          21.5383   71.0222   -1.1283 P.3     1  UNL1        0.2189
      2 O          23.0493   71.2080   -0.5808 O.3     1  UNL1       -0.4371
      3 O          20.9723   69.6416   -0.9681 O.2     1  UNL1       -0.5170
      4 O          21.6008   71.5849   -2.6432 O.3     1  UNL1       -0.3112
      5 C          20.7806   70.9764   -3.6263 C.3     1  UNL1        0.1811
      6 O          18.9263   72.0376   -4.7261 O.3     1  UNL1       -0.3308
      7 O          17.2334   70.9731   -2.4917 O.3     1  UNL1       -0.3794
      8 O          16.7250   69.2153   -4.5135 O.3     1  UNL1       -0.3779
      9 C          18.3583   70.3756   -3.1362 C.3     1  UNL1        0.1713
     10 C          17.9720   69.8792   -4.5134 C.3     1  UNL1        0.1895
     11 C          19.3538   71.4808   -3.4634 C.3     1  UNL1        0.1764
     12 C          17.9476   71.1675   -5.3181 C.3     1  UNL1        0.2383
     13 H          17.5373   71.3103   -1.6318 H       1  UNL1        0.2105
     14 H          16.7908   68.4689   -3.8932 H       1  UNL1        0.2106
     15 O          16.0882   70.4550   -7.3206 O.2     1  UNL1       -0.2464
     16 O          19.3461   70.3895  -10.5795 O.2     1  UNL1       -0.2670
     17 N          18.2822   70.9585   -6.6979 N.ar    1  UNL1       -0.2551
     18 N          17.7118   70.4223   -8.9420 N.ar    1  UNL1       -0.2743
     19 C          17.2736   70.6022   -7.6234 C.ar    1  UNL1        0.3323
     20 C          19.5981   71.1066   -7.1221 C.ar    1  UNL1        0.0869
     21 C          19.9999   70.9321   -8.3830 C.ar    1  UNL1        0.0795
     22 C          19.0091   70.5579   -9.4116 C.ar    1  UNL1        0.2626
     23 H          17.0039   70.1652   -9.6245 H       1  UNL1        0.1734
     24 O          20.7242   72.1790   -0.3446 O.3     1  UNL1       -0.2703
     25 P          20.9839   73.7707   -0.2364 P.3     1  UNL1        0.2208
     26 O          19.4988   74.3985   -0.3639 O.3     1  UNL1       -0.4371
     27 O          21.9701   74.3033   -1.2363 O.2     1  UNL1       -0.5170
     28 O          21.3992   74.0136    1.3039 O.3     1  UNL1       -0.2858
     29 O          23.4600   74.7732    2.1845 O.3     1  UNL1       -0.3226
     30 O          22.0679   72.3081    5.2283 O.3     1  UNL1       -0.3794
     31 O          21.7744   71.5230    2.4348 O.3     1  UNL1       -0.3775
     32 O          24.1469   74.0946    4.8875 O.3     1  UNL1       -0.3792
     33 C          22.0159   73.2326    4.1452 C.3     1  UNL1        0.1718
     34 C          22.5944   72.6005    2.8748 C.3     1  UNL1        0.1968
     35 C          22.8183   74.4813    4.5211 C.3     1  UNL1        0.1723
     36 C          22.7014   73.6392    1.7514 C.3     1  UNL1        0.2706
     37 C          22.8939   75.4232    3.3214 C.3     1  UNL1        0.1830
     38 H          21.6949   72.7505    6.0098 H       1  UNL1        0.2105
     39 H          22.1739   71.1618    1.6257 H       1  UNL1        0.2106
     40 H          24.6315   73.8516    4.0804 H       1  UNL1        0.2106
     41 O          23.5901   77.5687    2.6766 O.co2   1  UNL1       -0.5466
     42 O          24.5607   76.6777    4.5370 O.co2   1  UNL1       -0.5466
     43 C          23.7773   76.5969    3.6020 C.2     1  UNL1        0.0799
@<TRIPOS>UNITY_ATOM_ATTR
41 1
charge -1
@<TRIPOS>BOND
     1     1     4    1
     2     1    24    1
     3     1     2    1
     4     1     3    2
     5    25    28    1
     6    25    24    1
     7    25    26    1
     8    25    27    2
     9     6    11    1
    10     6    12    1
    11    29    36    1
    12    29    37    1
    13     7     9    1
    14     7    13    1
    15     8    10    1
    16     8    14    1
    17     4     5    1
    18    28    36    1
    19    30    33    1
    20    30    38    1
    21    31    34    1
    22    31    39    1
    23    32    35    1
    24    32    40    1
    25    41    43   ar
    26    15    19    2
    27    42    43   ar
    28    16    22    2
    29    17    12    1
    30    17    19   ar
    31    17    20   ar
    32    18    19   ar
    33    18    22   ar
    34    18    23    1
    35     9    10    1
    36     9    11    1
    37    10    12    1
    38    11     5    1
    39    33    34    1
    40    33    35    1
    41    34    36    1
    42    35    37    1
    43    37    43    1
    44    20    21   ar
    45    21    22   ar
@<TRIPOS>MOLECULE
UDP-glaA
 43 45 0 0 0
SMALL
GASTEIGER

@<TRIPOS>ATOM
      1 P          22.8890   71.7511   -3.0507 P.3     1  UNL1        0.2189
      2 O          23.7970   70.4208   -3.2019 O.3     1  UNL1       -0.4371
      3 O          22.6072   72.1678   -1.6368 O.2     1  UNL1       -0.5170
      4 O          21.5908   71.4429   -3.9646 O.3     1  UNL1       -0.3112
      5 C          20.6917   70.4306   -3.5449 C.3     1  UNL1        0.1811
      6 O          18.9533   71.7198   -4.5889 O.3     1  UNL1       -0.3308
      7 O          17.1342   70.6411   -2.4632 O.3     1  UNL1       -0.3794
      8 O          16.5236   69.0833   -4.6163 O.3     1  UNL1       -0.3779
      9 C          18.2188   70.0001   -3.1343 C.3     1  UNL1        0.1713
     10 C          17.8206   69.6389   -4.5498 C.3     1  UNL1        0.1895
     11 C          19.3083   71.0391   -3.3650 C.3     1  UNL1        0.1764
     12 C          17.9185   70.9798   -5.2573 C.3     1  UNL1        0.2383
     13 H          17.4476   70.8884   -1.5765 H       1  UNL1        0.2105
     14 H          16.5153   68.2910   -4.0521 H       1  UNL1        0.2106
     15 O          16.0559   70.4878   -7.3222 O.2     1  UNL1       -0.2464
     16 O          19.3528   70.4759  -10.5423 O.2     1  UNL1       -0.2670
     17 N          18.2623   70.8442   -6.6439 N.ar    1  UNL1       -0.2551
     18 N          17.6989   70.4817   -8.9243 N.ar    1  UNL1       -0.2743
     19 C          17.2511   70.5971   -7.6016 C.ar    1  UNL1        0.3323
     20 C          19.5895   70.9560   -7.0431 C.ar    1  UNL1        0.0869
     21 C          20.0004   70.8439   -8.3081 C.ar    1  UNL1        0.0795
     22 C          19.0076   70.5848   -9.3697 C.ar    1  UNL1        0.2626
     23 H          16.9894   70.3034   -9.6298 H       1  UNL1        0.1734
     24 O          23.6983   72.8437   -3.9262 O.3     1  UNL1       -0.2703
     25 P          23.2202   74.2415   -4.5822 P.3     1  UNL1        0.2208
     26 O          22.1043   74.7774   -3.5412 O.3     1  UNL1       -0.4371
     27 O          22.7396   74.1239   -6.0002 O.2     1  UNL1       -0.5170
     28 O          24.4751   75.2365   -4.3839 O.3     1  UNL1       -0.2858
     29 O          26.7996   74.8025   -4.2980 O.3     1  UNL1       -0.3226
     30 O          26.4080   77.9788   -1.6452 O.3     1  UNL1       -0.3794
     31 O          24.4339   75.8324   -1.6884 O.3     1  UNL1       -0.3775
     32 O          28.4882   76.5831   -2.8091 O.3     1  UNL1       -0.3792
     33 C          26.1441   77.1659   -2.7853 C.3     1  UNL1        0.1718
     34 C          25.6920   75.7674   -2.3516 C.3     1  UNL1        0.1968
     35 C          27.4185   77.0665   -3.6282 C.3     1  UNL1        0.1723
     36 C          25.5715   74.8352   -3.5635 C.3     1  UNL1        0.2706
     37 C          27.1982   76.0857   -4.7779 C.3     1  UNL1        0.1830
     38 H          26.6927   78.8513   -1.9665 H       1  UNL1        0.2105
     39 H          24.1851   74.9256   -1.4418 H       1  UNL1        0.2106
     40 H          28.3496   75.6344   -2.6481 H       1  UNL1        0.2106
     41 O          28.4184   74.6631   -6.1889 O.co2   1  UNL1       -0.5466
     42 O          29.3958   76.6397   -5.6104 O.co2   1  UNL1       -0.5466
     43 C          28.4574   75.8584   -5.5522 C.2     1  UNL1        0.0799
@<TRIPOS>UNITY_ATOM_ATTR
41 1
charge -1
@<TRIPOS>BOND
     1     1     4    1
     2     1    24    1
     3     1     2    1
     4     1     3    2
     5    25    28    1
     6    25    24    1
     7    25    26    1
     8    25    27    2
     9     6    11    1
    10     6    12    1
    11    29    36    1
    12    29    37    1
    13     7     9    1
    14     7    13    1
    15     8    10    1
    16     8    14    1
    17     4     5    1
    18    28    36    1
    19    30    33    1
    20    30    38    1
    21    31    34    1
    22    31    39    1
    23    32    35    1
    24    32    40    1
    25    41    43   ar
    26    15    19    2
    27    42    43   ar
    28    16    22    2
    29    17    12    1
    30    17    19   ar
    31    17    20   ar
    32    18    19   ar
    33    18    22   ar
    34    18    23    1
    35     9    10    1
    36     9    11    1
    37    10    12    1
    38    11     5    1
    39    33    34    1
    40    33    35    1
    41    34    36    1
    42    35    37    1
    43    37    43    1
    44    20    21   ar
    45    21    22   ar
@<TRIPOS>MOLECULE
UDP-glaA
 43 45 0 0 0
SMALL
GASTEIGER

@<TRIPOS>ATOM
      1 P          19.7600   71.3945   -4.5429 P.3     1  UNL1        0.2189
      2 O          20.0646   69.8903   -4.0311 O.3     1  UNL1       -0.4371
      3 O          18.7635   72.1544   -3.7173 O.2     1  UNL1       -0.5170
      4 O          19.3814   71.2059   -6.1039 O.3     1  UNL1       -0.3112
      5 C          18.1289   70.6292   -6.4323 C.3     1  UNL1        0.1811
      6 O          16.5287   71.6428   -7.9109 O.3     1  UNL1       -0.3308
      7 O          18.7310   71.7111   -9.9448 O.3     1  UNL1       -0.3794
      8 O          18.6919   74.2772   -9.0231 O.3     1  UNL1       -0.3779
      9 C          18.8008   71.8987   -8.5314 C.3     1  UNL1        0.1713
     10 C          18.2469   73.2564   -8.1539 C.3     1  UNL1        0.1895
     11 C          17.7982   70.9537   -7.8821 C.3     1  UNL1        0.1764
     12 C          16.7486   73.0229   -8.2461 C.3     1  UNL1        0.2383
     13 H          19.0591   70.8156  -10.1348 H       1  UNL1        0.2105
     14 H          19.6639   74.2888   -8.9875 H       1  UNL1        0.2106
     15 O          14.1679   74.0484   -8.7598 O.2     1  UNL1       -0.2464
     16 O          14.0039   76.1821   -4.6783 O.2     1  UNL1       -0.2670
     17 N          16.0081   73.8485   -7.3353 N.ar    1  UNL1       -0.2551
     18 N          14.0882   75.1107   -6.7273 N.ar    1  UNL1       -0.2743
     19 C          14.7197   74.3123   -7.6900 C.ar    1  UNL1        0.3323
     20 C          16.5592   74.1910   -6.1055 C.ar    1  UNL1        0.0869
     21 C          15.9441   74.9528   -5.1982 C.ar    1  UNL1        0.0795
     22 C          14.5960   75.4786   -5.4909 C.ar    1  UNL1        0.2626
     23 H          13.1612   75.4559   -6.9610 H       1  UNL1        0.1734
     24 O          21.2319   72.0614   -4.6043 O.3     1  UNL1       -0.2703
     25 P          22.5027   71.9186   -3.6156 P.3     1  UNL1        0.2208
     26 O          23.6491   72.7857   -4.3573 O.3     1  UNL1       -0.4371
     27 O          22.8944   70.4998   -3.3169 O.2     1  UNL1       -0.5170
     28 O          22.1091   72.7894   -2.3153 O.3     1  UNL1       -0.2858
     29 O          21.3858   71.1422   -0.7781 O.3     1  UNL1       -0.3226
     30 O          21.3966   74.5757    1.5652 O.3     1  UNL1       -0.3794
     31 O          20.4240   74.6606   -1.1831 O.3     1  UNL1       -0.3775
     32 O          21.0723   71.8644    1.9821 O.3     1  UNL1       -0.3792
     33 C          21.8074   73.6649    0.5493 C.3     1  UNL1        0.1718
     34 C          20.6813   73.4562   -0.4688 C.3     1  UNL1        0.1968
     35 C          22.1780   72.3300    1.2015 C.3     1  UNL1        0.1723
     36 C          21.0490   72.3511   -1.4667 C.3     1  UNL1        0.2706
     37 C          22.4845   71.2975    0.1188 C.3     1  UNL1        0.1830
     38 H          22.1375   74.6754    2.1869 H       1  UNL1        0.2105
     39 H          19.7130   74.4777   -1.8202 H       1  UNL1        0.2106
     40 H          20.3822   71.5412    1.3784 H       1  UNL1        0.2106
     41 O          23.3747   70.0448    1.8914 O.co2   1  UNL1       -0.5466
     42 O          22.3842   68.8863    0.1961 O.co2   1  UNL1       -0.5466
     43 C          22.7255   69.9434    0.7065 C.2     1  UNL1        0.0799
@<TRIPOS>UNITY_ATOM_ATTR
41 1
charge -1
@<TRIPOS>BOND
     1     1     4    1
     2     1    24    1
     3     1     2    1
     4     1     3    2
     5    25    28    1
     6    25    24    1
     7    25    26    1
     8    25    27    2
     9     6    11    1
    10     6    12    1
    11    29    36    1
    12    29    37    1
    13     7     9    1
    14     7    13    1
    15     8    10    1
    16     8    14    1
    17     4     5    1
    18    28    36    1
    19    30    33    1
    20    30    38    1
    21    31    34    1
    22    31    39    1
    23    32    35    1
    24    32    40    1
    25    41    43   ar
    26    15    19    2
    27    42    43   ar
    28    16    22    2
    29    17    12    1
    30    17    19   ar
    31    17    20   ar
    32    18    19   ar
    33    18    22   ar
    34    18    23    1
    35     9    10    1
    36     9    11    1
    37    10    12    1
    38    11     5    1
    39    33    34    1
    40    33    35    1
    41    34    36    1
    42    35    37    1
    43    37    43    1
    44    20    21   ar
    45    21    22   ar
@<TRIPOS>MOLECULE
UDP-glaA
 43 45 0 0 0
SMALL
GASTEIGER

@<TRIPOS>ATOM
      1 P          19.0353   70.8926   -4.1622 P.3     1  UNL1        0.2189
      2 O          19.4085   69.8512   -5.3427 O.3     1  UNL1       -0.4371
      3 O          18.0828   70.3643   -3.1299 O.2     1  UNL1       -0.5170
      4 O          18.5521   72.2191   -4.9511 O.3     1  UNL1       -0.3112
      5 C          18.2558   73.3839   -4.1997 C.3     1  UNL1        0.1811
      6 O          19.9083   74.0489   -5.8126 O.3     1  UNL1       -0.3308
      7 O          18.9667   76.8566   -5.3422 O.3     1  UNL1       -0.3794
      8 O          17.7331   76.1992   -7.6836 O.3     1  UNL1       -0.3779
      9 C          18.2143   75.6438   -5.3661 C.3     1  UNL1        0.1713
     10 C          18.0536   75.1534   -6.7896 C.3     1  UNL1        0.1895
     11 C          19.0708   74.5475   -4.7462 C.3     1  UNL1        0.1764
     12 C          19.4164   74.5432   -7.0692 C.3     1  UNL1        0.2383
     13 H          19.0773   77.1108   -4.4102 H       1  UNL1        0.2105
     14 H          16.9064   76.6068   -7.3729 H       1  UNL1        0.2106
     15 O          17.7899   74.5236   -9.3778 O.2     1  UNL1       -0.2464
     16 O          19.2381   70.3184  -10.5852 O.2     1  UNL1       -0.2670
     17 N          19.3492   73.4569   -8.0045 N.ar    1  UNL1       -0.2551
     18 N          18.5117   72.4294   -9.9772 N.ar    1  UNL1       -0.2743
     19 C          18.4994   73.5465   -9.1316 C.ar    1  UNL1        0.3323
     20 C          20.1200   72.3177   -7.8003 C.ar    1  UNL1        0.0869
     21 C          20.1210   71.2611   -8.6160 C.ar    1  UNL1        0.0795
     22 C          19.2606   71.2741   -9.8157 C.ar    1  UNL1        0.2626
     23 H          17.9079   72.4714  -10.7938 H       1  UNL1        0.1734
     24 O          20.4841   71.3207   -3.5853 O.3     1  UNL1       -0.2703
     25 P          21.4485   70.6047   -2.5037 P.3     1  UNL1        0.2208
     26 O          22.9098   70.6972   -3.1908 O.3     1  UNL1       -0.4371
     27 O          21.0268   69.2129   -2.1286 O.2     1  UNL1       -0.5170
     28 O          21.5130   71.6381   -1.2660 O.3     1  UNL1       -0.2858
     29 O          23.2458   72.9584   -0.3422 O.3     1  UNL1       -0.3226
     30 O          21.1710   71.7470    3.0500 O.3     1  UNL1       -0.3794
     31 O          21.6475   69.8813    0.8596 O.3     1  UNL1       -0.3775
     32 O          23.2143   73.5141    2.4736 O.3     1  UNL1       -0.3792
     33 C          21.3802   72.1466    1.6983 C.3     1  UNL1        0.1718
     34 C          22.2912   71.1454    0.9800 C.3     1  UNL1        0.1968
     35 C          22.0190   73.5381    1.6865 C.3     1  UNL1        0.1723
     36 C          22.6611   71.6541   -0.4188 C.3     1  UNL1        0.2706
     37 C          22.3815   73.9242    0.2542 C.3     1  UNL1        0.1830
     38 H          20.5925   72.4091    3.4654 H       1  UNL1        0.2105
     39 H          22.2564   69.2853    0.3918 H       1  UNL1        0.2106
     40 H          23.9014   73.0378    1.9774 H       1  UNL1        0.2106
     41 O          24.4633   75.0055    0.2262 O.co2   1  UNL1       -0.5466
     42 O          22.6064   76.3263    0.1589 O.co2   1  UNL1       -0.5466
     43 C          23.1257   75.2207    0.2086 C.2     1  UNL1        0.0799
@<TRIPOS>UNITY_ATOM_ATTR
41 1
charge -1
@<TRIPOS>BOND
     1     1     4    1
     2     1    24    1
     3     1     2    1
     4     1     3    2
     5    25    28    1
     6    25    24    1
     7    25    26    1
     8    25    27    2
     9     6    11    1
    10     6    12    1
    11    29    36    1
    12    29    37    1
    13     7     9    1
    14     7    13    1
    15     8    10    1
    16     8    14    1
    17     4     5    1
    18    28    36    1
    19    30    33    1
    20    30    38    1
    21    31    34    1
    22    31    39    1
    23    32    35    1
    24    32    40    1
    25    41    43   ar
    26    15    19    2
    27    42    43   ar
    28    16    22    2
    29    17    12    1
    30    17    19   ar
    31    17    20   ar
    32    18    19   ar
    33    18    22   ar
    34    18    23    1
    35     9    10    1
    36     9    11    1
    37    10    12    1
    38    11     5    1
    39    33    34    1
    40    33    35    1
    41    34    36    1
    42    35    37    1
    43    37    43    1
    44    20    21   ar
    45    21    22   ar
@<TRIPOS>MOLECULE
UDP-glaA
 43 45 0 0 0
SMALL
GASTEIGER

@<TRIPOS>ATOM
      1 P          23.4099   74.3173   -4.0717 P.3     1  UNL1        0.2189
      2 O          23.9428   72.8074   -3.8399 O.3     1  UNL1       -0.4371
      3 O          24.3919   75.2409   -4.7309 O.2     1  UNL1       -0.5170
      4 O          22.8862   74.7742   -2.6114 O.3     1  UNL1       -0.3112
      5 C          23.7072   75.6296   -1.8344 C.3     1  UNL1        0.1811
      6 O          22.0499   74.9962   -0.2138 O.3     1  UNL1       -0.3308
      7 O          23.1330   77.2167    1.4855 O.3     1  UNL1       -0.3794
      8 O          24.2784   75.0048    2.5950 O.3     1  UNL1       -0.3779
      9 C          23.8269   76.3304    0.6076 C.3     1  UNL1        0.1713
     10 C          23.9306   74.9525    1.2269 C.3     1  UNL1        0.1895
     11 C          22.9349   76.0710   -0.5993 C.3     1  UNL1        0.1764
     12 C          22.5344   74.3984    1.0000 C.3     1  UNL1        0.2383
     13 H          23.0566   78.0733    1.0315 H       1  UNL1        0.2105
     14 H          25.1305   75.4690    2.6629 H       1  UNL1        0.2106
     15 O          22.4336   72.5725    3.1520 O.2     1  UNL1       -0.2464
     16 O          22.5184   68.9420    0.3146 O.2     1  UNL1       -0.2670
     17 N          22.5284   72.9710    0.8525 N.ar    1  UNL1       -0.2551
     18 N          22.4764   70.7659    1.7377 N.ar    1  UNL1       -0.2743
     19 C          22.4768   72.1426    1.9979 C.ar    1  UNL1        0.3323
     20 C          22.5734   72.4051   -0.4168 C.ar    1  UNL1        0.0869
     21 C          22.5719   71.0905   -0.6483 C.ar    1  UNL1        0.0795
     22 C          22.5205   70.1561    0.4935 C.ar    1  UNL1        0.2626
     23 H          22.4404   70.1511    2.5463 H       1  UNL1        0.1734
     24 O          22.0368   74.0943   -4.8964 O.3     1  UNL1       -0.2703
     25 P          21.7653   73.9438   -6.4827 P.3     1  UNL1        0.2208
     26 O          22.9135   72.9091   -6.9591 O.3     1  UNL1       -0.4371
     27 O          21.7539   75.2454   -7.2319 O.2     1  UNL1       -0.5170
     28 O          20.3911   73.1040   -6.5844 O.3     1  UNL1       -0.2858
     29 O          19.4247   70.9474   -6.7061 O.3     1  UNL1       -0.3226
     30 O          18.3411   72.5952  -10.3654 O.3     1  UNL1       -0.3794
     31 O          21.0098   73.0355   -9.2743 O.3     1  UNL1       -0.3775
     32 O          17.7376   70.3083   -8.9385 O.3     1  UNL1       -0.3792
     33 C          18.6483   72.5453   -8.9749 C.3     1  UNL1        0.1718
     34 C          20.0913   72.0754   -8.7628 C.3     1  UNL1        0.1968
     35 C          17.6771   71.5816   -8.2874 C.3     1  UNL1        0.1723
     36 C          20.3770   71.8539   -7.2723 C.3     1  UNL1        0.2706
     37 C          18.0786   71.4051   -6.8246 C.3     1  UNL1        0.1830
     38 H          17.4199   72.8943  -10.4518 H       1  UNL1        0.2105
     39 H          21.9070   72.7000   -9.1094 H       1  UNL1        0.2106
     40 H          18.5704   69.8731   -8.6892 H       1  UNL1        0.2106
     41 O          17.7492   70.0568   -4.9332 O.co2   1  UNL1       -0.5466
     42 O          16.2200   69.8782   -6.6145 O.co2   1  UNL1       -0.5466
     43 C          17.2356   70.3723   -6.1466 C.2     1  UNL1        0.0799
@<TRIPOS>UNITY_ATOM_ATTR
41 1
charge -1
@<TRIPOS>BOND
     1     1     4    1
     2     1    24    1
     3     1     2    1
     4     1     3    2
     5    25    28    1
     6    25    24    1
     7    25    26    1
     8    25    27    2
     9     6    11    1
    10     6    12    1
    11    29    36    1
    12    29    37    1
    13     7     9    1
    14     7    13    1
    15     8    10    1
    16     8    14    1
    17     4     5    1
    18    28    36    1
    19    30    33    1
    20    30    38    1
    21    31    34    1
    22    31    39    1
    23    32    35    1
    24    32    40    1
    25    41    43   ar
    26    15    19    2
    27    42    43   ar
    28    16    22    2
    29    17    12    1
    30    17    19   ar
    31    17    20   ar
    32    18    19   ar
    33    18    22   ar
    34    18    23    1
    35     9    10    1
    36     9    11    1
    37    10    12    1
    38    11     5    1
    39    33    34    1
    40    33    35    1
    41    34    36    1
    42    35    37    1
    43    37    43    1
    44    20    21   ar
    45    21    22   ar
@<TRIPOS>MOLECULE
UDP-glaA
 43 45 0 0 0
SMALL
GASTEIGER

@<TRIPOS>ATOM
      1 P          21.8873   73.6564   -5.6627 P.3     1  UNL1        0.2189
      2 O          22.1093   75.2586   -5.6982 O.3     1  UNL1       -0.4371
      3 O          22.8705   72.8630   -6.4726 O.2     1  UNL1       -0.5170
      4 O          20.3321   73.4695   -6.0650 O.3     1  UNL1       -0.3112
      5 C          19.8431   74.1445   -7.2115 C.3     1  UNL1        0.1811
      6 O          19.7070   71.8030   -7.7339 O.3     1  UNL1       -0.3308
      7 O          18.0785   72.6201  -10.1154 O.3     1  UNL1       -0.3794
      8 O          16.1752   71.7817   -8.3517 O.3     1  UNL1       -0.3779
      9 C          18.1082   73.1849   -8.8047 C.3     1  UNL1        0.1713
     10 C          17.3880   72.2808   -7.8268 C.3     1  UNL1        0.1895
     11 C          19.5435   73.1225   -8.2989 C.3     1  UNL1        0.1764
     12 C          18.4162   71.1874   -7.5915 C.3     1  UNL1        0.2383
     13 H          18.5839   73.2125  -10.6978 H       1  UNL1        0.2105
     14 H          15.6172   72.5461   -8.5767 H       1  UNL1        0.2106
     15 O          16.2449   69.6160   -6.7018 O.2     1  UNL1       -0.2464
     16 O          18.1341   69.0353   -2.5386 O.2     1  UNL1       -0.2670
     17 N          18.3149   70.6125   -6.2805 N.ar    1  UNL1       -0.2551
     18 N          17.1869   69.3283   -4.6291 N.ar    1  UNL1       -0.2743
     19 C          17.1820   69.8400   -5.9335 C.ar    1  UNL1        0.3323
     20 C          19.3312   70.8165   -5.3538 C.ar    1  UNL1        0.0869
     21 C          19.3213   70.3215   -4.1142 C.ar    1  UNL1        0.0795
     22 C          18.1740   69.5044   -3.6719 C.ar    1  UNL1        0.2626
     23 H          16.3820   68.7702   -4.3574 H       1  UNL1        0.1734
     24 O          21.8953   73.3246   -4.0799 O.3     1  UNL1       -0.2703
     25 P          21.8586   74.3003   -2.7919 P.3     1  UNL1        0.2208
     26 O          20.4380   75.0591   -2.9414 O.3     1  UNL1       -0.4371
     27 O          23.0427   75.2175   -2.6800 O.2     1  UNL1       -0.5170
     28 O          21.6618   73.3093   -1.5336 O.3     1  UNL1       -0.2858
     29 O          22.9717   73.3455    0.4367 O.3     1  UNL1       -0.3226
     30 O          21.6019   69.4214    0.3735 O.3     1  UNL1       -0.3794
     31 O          22.4697   70.7275   -2.0855 O.3     1  UNL1       -0.3775
     32 O          22.9676   71.0402    2.1467 O.3     1  UNL1       -0.3792
     33 C          21.5861   70.8324    0.1761 C.3     1  UNL1        0.1718
     34 C          22.7061   71.2505   -0.7826 C.3     1  UNL1        0.1968
     35 C          21.7700   71.5239    1.5298 C.3     1  UNL1        0.1723
     36 C          22.8065   72.7786   -0.8672 C.3     1  UNL1        0.2706
     37 C          21.8983   73.0315    1.3227 C.3     1  UNL1        0.1830
     38 H          20.8799   69.2029    0.9872 H       1  UNL1        0.2105
     39 H          23.1970   71.0253   -2.6575 H       1  UNL1        0.2106
     40 H          23.7308   71.4265    1.6847 H       1  UNL1        0.2106
     41 O          21.2050   74.5806    2.9424 O.co2   1  UNL1       -0.5466
     42 O          23.2247   73.5741    3.2659 O.co2   1  UNL1       -0.5466
     43 C          22.2089   73.7356    2.6052 C.2     1  UNL1        0.0799
@<TRIPOS>UNITY_ATOM_ATTR
41 1
charge -1
@<TRIPOS>BOND
     1     1     4    1
     2     1    24    1
     3     1     2    1
     4     1     3    2
     5    25    28    1
     6    25    24    1
     7    25    26    1
     8    25    27    2
     9     6    11    1
    10     6    12    1
    11    29    36    1
    12    29    37    1
    13     7     9    1
    14     7    13    1
    15     8    10    1
    16     8    14    1
    17     4     5    1
    18    28    36    1
    19    30    33    1
    20    30    38    1
    21    31    34    1
    22    31    39    1
    23    32    35    1
    24    32    40    1
    25    41    43   ar
    26    15    19    2
    27    42    43   ar
    28    16    22    2
    29    17    12    1
    30    17    19   ar
    31    17    20   ar
    32    18    19   ar
    33    18    22   ar
    34    18    23    1
    35     9    10    1
    36     9    11    1
    37    10    12    1
    38    11     5    1
    39    33    34    1
    40    33    35    1
    41    34    36    1
    42    35    37    1
    43    37    43    1
    44    20    21   ar
    45    21    22   ar
@<TRIPOS>MOLECULE
UDP-glaA
 43 45 0 0 0
SMALL
GASTEIGER

@<TRIPOS>ATOM
      1 P          23.4147   74.4744   -4.1212 P.3     1  UNL1        0.2189
      2 O          24.3373   75.8032   -4.1406 O.3     1  UNL1       -0.4371
      3 O          24.1699   73.1808   -4.0298 O.2     1  UNL1       -0.5170
      4 O          22.4623   74.6423   -5.4175 O.3     1  UNL1       -0.3112
      5 C          22.1047   73.4827   -6.1501 C.3     1  UNL1        0.1811
      6 O          21.2216   72.8014   -8.2785 O.3     1  UNL1       -0.3308
      7 O          21.5698   75.6564   -9.1267 O.3     1  UNL1       -0.3794
      8 O          18.9008   75.5172   -8.5858 O.3     1  UNL1       -0.3779
      9 C          21.1874   75.1321   -7.8552 C.3     1  UNL1        0.1713
     10 C          19.7603   74.6284   -7.9025 C.3     1  UNL1        0.1895
     11 C          21.9713   73.8473   -7.6219 C.3     1  UNL1        0.1764
     12 C          19.9181   73.2997   -8.6220 C.3     1  UNL1        0.2383
     13 H          22.5005   75.9299   -9.0593 H       1  UNL1        0.2105
     14 H          18.9400   76.3736   -8.1263 H       1  UNL1        0.2106
     15 O          19.0840   71.1149  -10.2051 O.2     1  UNL1       -0.2464
     16 O          16.1181   69.6777   -6.9838 O.2     1  UNL1       -0.2670
     17 N          18.9303   72.3388   -8.2217 N.ar    1  UNL1       -0.2551
     18 N          17.6073   70.4010   -8.6002 N.ar    1  UNL1       -0.2743
     19 C          18.5822   71.2791   -9.0916 C.ar    1  UNL1        0.3323
     20 C          18.3170   72.4519   -6.9790 C.ar    1  UNL1        0.0869
     21 C          17.3895   71.6061   -6.5247 C.ar    1  UNL1        0.0795
     22 C          16.9687   70.4726   -7.3718 C.ar    1  UNL1        0.2626
     23 H          17.3409   69.6318   -9.2089 H       1  UNL1        0.1734
     24 O          22.4042   74.7529   -2.8897 O.3     1  UNL1       -0.2703
     25 P          21.9637   73.8174   -1.6474 P.3     1  UNL1        0.2208
     26 O          20.9034   74.7394   -0.8463 O.3     1  UNL1       -0.4371
     27 O          23.1097   73.3223   -0.8124 O.2     1  UNL1       -0.5170
     28 O          21.0696   72.6498   -2.3116 O.3     1  UNL1       -0.2858
     29 O          18.9420   71.9525   -1.5457 O.3     1  UNL1       -0.3226
     30 O          20.3296   68.5465   -3.4829 O.3     1  UNL1       -0.3794
     31 O          22.1227   70.1439   -1.8279 O.3     1  UNL1       -0.3775
     32 O          17.9512   69.3829   -2.3544 O.3     1  UNL1       -0.3792
     33 C          20.1394   69.9333   -3.2167 C.3     1  UNL1        0.1718
     34 C          20.7072   70.2961   -1.8404 C.3     1  UNL1        0.1968
     35 C          18.6412   70.2458   -3.2643 C.3     1  UNL1        0.1723
     36 C          20.3561   71.7430   -1.4721 C.3     1  UNL1        0.2706
     37 C          18.4055   71.6944   -2.8423 C.3     1  UNL1        0.1830
     38 H          19.9539   68.3620   -4.3607 H       1  UNL1        0.2105
     39 H          22.4367   70.3931   -0.9424 H       1  UNL1        0.2106
     40 H          18.1306   69.6835   -1.4474 H       1  UNL1        0.2106
     41 O          16.2208   71.1275   -3.4820 O.co2   1  UNL1       -0.5466
     42 O          16.4647   72.9245   -2.1007 O.co2   1  UNL1       -0.5466
     43 C          16.9458   72.0066   -2.7491 C.2     1  UNL1        0.0799
@<TRIPOS>UNITY_ATOM_ATTR
41 1
charge -1
@<TRIPOS>BOND
     1     1     4    1
     2     1    24    1
     3     1     2    1
     4     1     3    2
     5    25    28    1
     6    25    24    1
     7    25    26    1
     8    25    27    2
     9     6    11    1
    10     6    12    1
    11    29    36    1
    12    29    37    1
    13     7     9    1
    14     7    13    1
    15     8    10    1
    16     8    14    1
    17     4     5    1
    18    28    36    1
    19    30    33    1
    20    30    38    1
    21    31    34    1
    22    31    39    1
    23    32    35    1
    24    32    40    1
    25    41    43   ar
    26    15    19    2
    27    42    43   ar
    28    16    22    2
    29    17    12    1
    30    17    19   ar
    31    17    20   ar
    32    18    19   ar
    33    18    22   ar
    34    18    23    1
    35     9    10    1
    36     9    11    1
    37    10    12    1
    38    11     5    1
    39    33    34    1
    40    33    35    1
    41    34    36    1
    42    35    37    1
    43    37    43    1
    44    20    21   ar
    45    21    22   ar
@<TRIPOS>MOLECULE
UDP-glaA
 43 45 0 0 0
SMALL
GASTEIGER

@<TRIPOS>ATOM
      1 P          19.4048   71.9580   -3.9658 P.3     1  UNL1        0.2189
      2 O          18.6918   71.0278   -2.8505 O.3     1  UNL1       -0.4371
      3 O          19.2122   73.4342   -3.7759 O.2     1  UNL1       -0.5170
      4 O          18.8775   71.3553   -5.3709 O.3     1  UNL1       -0.3112
      5 C          19.6274   71.6182   -6.5447 C.3     1  UNL1        0.1811
      6 O          17.4460   71.1904   -7.4574 O.3     1  UNL1       -0.3308
      7 O          18.7883   71.1102  -10.1375 O.3     1  UNL1       -0.3794
      8 O          17.6862   73.6041  -10.0979 O.3     1  UNL1       -0.3779
      9 C          19.0761   71.9337   -9.0076 C.3     1  UNL1        0.1713
     10 C          18.0221   73.0107   -8.8606 C.3     1  UNL1        0.1895
     11 C          18.8576   71.1006   -7.7514 C.3     1  UNL1        0.1764
     12 C          16.8648   72.2389   -8.2500 C.3     1  UNL1        0.2383
     13 H          19.4659   70.4134  -10.1683 H       1  UNL1        0.2105
     14 H          18.5012   73.9801  -10.4729 H       1  UNL1        0.2106
     15 O          14.8384   73.9650   -9.1932 O.2     1  UNL1       -0.2464
     16 O          13.7720   75.3424   -4.9265 O.2     1  UNL1       -0.2670
     17 N          16.0420   73.0595   -7.4080 N.ar    1  UNL1       -0.2551
     18 N          14.3091   74.6502   -7.0680 N.ar    1  UNL1       -0.2743
     19 C          15.0530   73.8922   -7.9818 C.ar    1  UNL1        0.3323
     20 C          16.2192   73.0345   -6.0291 C.ar    1  UNL1        0.0869
     21 C          15.5015   73.7628   -5.1710 C.ar    1  UNL1        0.0795
     22 C          14.4489   74.6592   -5.6888 C.ar    1  UNL1        0.2626
     23 H          13.5927   75.2566   -7.4581 H       1  UNL1        0.1734
     24 O          20.9450   71.4678   -3.9155 O.3     1  UNL1       -0.2703
     25 P          21.7698   70.6790   -2.7709 P.3     1  UNL1        0.2208
     26 O          23.3037   70.7985   -3.2699 O.3     1  UNL1       -0.4371
     27 O          21.3026   69.2713   -2.5346 O.2     1  UNL1       -0.5170
     28 O          21.6865   71.6356   -1.4741 O.3     1  UNL1       -0.2858
     29 O          23.3411   72.9467   -0.4051 O.3     1  UNL1       -0.3226
     30 O          20.9846   71.7367    2.7984 O.3     1  UNL1       -0.3794
     31 O          21.6354   69.8737    0.6509 O.3     1  UNL1       -0.3775
     32 O          23.0760   73.4965    2.3996 O.3     1  UNL1       -0.3792
     33 C          21.3079   72.1383    1.4700 C.3     1  UNL1        0.1718
     34 C          22.2719   71.1348    0.8280 C.3     1  UNL1        0.1968
     35 C          21.9509   73.5272    1.5152 C.3     1  UNL1        0.1723
     36 C          22.7596   71.6450   -0.5336 C.3     1  UNL1        0.2706
     37 C          22.4337   73.9148    0.1192 C.3     1  UNL1        0.1830
     38 H          20.3760   72.4003    3.1655 H       1  UNL1        0.2105
     39 H          22.2791   69.2762    0.2343 H       1  UNL1        0.2106
     40 H          23.8004   73.0184    1.9615 H       1  UNL1        0.2106
     41 O          24.5185   74.9861    0.2185 O.co2   1  UNL1       -0.5466
     42 O          22.6724   76.3173    0.0885 O.co2   1  UNL1       -0.5466
     43 C          23.1843   75.2083    0.1394 C.2     1  UNL1        0.0799
@<TRIPOS>UNITY_ATOM_ATTR
41 1
charge -1
@<TRIPOS>BOND
     1     1     4    1
     2     1    24    1
     3     1     2    1
     4     1     3    2
     5    25    28    1
     6    25    24    1
     7    25    26    1
     8    25    27    2
     9     6    11    1
    10     6    12    1
    11    29    36    1
    12    29    37    1
    13     7     9    1
    14     7    13    1
    15     8    10    1
    16     8    14    1
    17     4     5    1
    18    28    36    1
    19    30    33    1
    20    30    38    1
    21    31    34    1
    22    31    39    1
    23    32    35    1
    24    32    40    1
    25    41    43   ar
    26    15    19    2
    27    42    43   ar
    28    16    22    2
    29    17    12    1
    30    17    19   ar
    31    17    20   ar
    32    18    19   ar
    33    18    22   ar
    34    18    23    1
    35     9    10    1
    36     9    11    1
    37    10    12    1
    38    11     5    1
    39    33    34    1
    40    33    35    1
    41    34    36    1
    42    35    37    1
    43    37    43    1
    44    20    21   ar
    45    21    22   ar
@<TRIPOS>MOLECULE
UDP-glaA
 43 45 0 0 0
SMALL
GASTEIGER

@<TRIPOS>ATOM
      1 P          22.3281   74.7035   -5.7782 P.3     1  UNL1        0.2189
      2 O          20.8456   75.3350   -5.9221 O.3     1  UNL1       -0.4371
      3 O          23.4497   75.6322   -6.1411 O.2     1  UNL1       -0.5170
      4 O          22.2506   73.3294   -6.6276 O.3     1  UNL1       -0.3112
      5 C          21.2340   73.1944   -7.6062 C.3     1  UNL1        0.1811
      6 O          19.2913   71.9424   -6.9485 O.3     1  UNL1       -0.3308
      7 O          20.3985   69.7075   -8.6130 O.3     1  UNL1       -0.3794
      8 O          18.4897   70.7744  -10.2422 O.3     1  UNL1       -0.3779
      9 C          20.4485   71.1154   -8.8431 C.3     1  UNL1        0.1713
     10 C          19.0933   71.6234   -9.2880 C.3     1  UNL1        0.1895
     11 C          20.6211   71.8056   -7.4964 C.3     1  UNL1        0.1764
     12 C          18.3265   71.6669   -7.9773 C.3     1  UNL1        0.2383
     13 H          21.2753   69.4348   -8.2932 H       1  UNL1        0.2105
     14 H          19.0927   70.7140  -11.0032 H       1  UNL1        0.2106
     15 O          18.2919   73.8897   -9.7190 O.2     1  UNL1       -0.2464
     16 O          14.4261   75.5410   -7.8302 O.2     1  UNL1       -0.2670
     17 N          17.3228   72.6925   -7.9631 N.ar    1  UNL1       -0.2551
     18 N          16.3672   74.7108   -8.7769 N.ar    1  UNL1       -0.2743
     19 C          17.3978   73.7672   -8.8798 C.ar    1  UNL1        0.3323
     20 C          16.2782   72.6275   -7.0477 C.ar    1  UNL1        0.0869
     21 C          15.3029   73.5349   -6.9625 C.ar    1  UNL1        0.0795
     22 C          15.3079   74.6891   -7.8830 C.ar    1  UNL1        0.2626
     23 H          16.4011   75.4925   -9.4256 H       1  UNL1        0.1734
     24 O          22.3532   74.1831   -4.2472 O.3     1  UNL1       -0.2703
     25 P          23.4364   73.2870   -3.4497 P.3     1  UNL1        0.2208
     26 O          24.8438   73.9982   -3.8099 O.3     1  UNL1       -0.4371
     27 O          23.3816   71.8214   -3.7736 O.2     1  UNL1       -0.5170
     28 O          23.1892   73.6355   -1.8936 O.3     1  UNL1       -0.2858
     29 O          21.6691   72.0236   -1.0625 O.3     1  UNL1       -0.3226
     30 O          22.4163   74.3363    2.3098 O.3     1  UNL1       -0.3794
     31 O          22.0676   75.5911   -0.2998 O.3     1  UNL1       -0.3775
     32 O          21.1091   71.9678    1.7521 O.3     1  UNL1       -0.3792
     33 C          22.6730   73.6786    1.0721 C.3     1  UNL1        0.1718
     34 C          21.7566   74.2291   -0.0258 C.3     1  UNL1        0.1968
     35 C          22.4333   72.1768    1.2504 C.3     1  UNL1        0.1723
     36 C          21.9036   73.4128   -1.3159 C.3     1  UNL1        0.2706
     37 C          22.5647   71.4725   -0.0982 C.3     1  UNL1        0.1830
     38 H          23.0155   73.9554    2.9742 H       1  UNL1        0.2105
     39 H          21.4704   75.8922   -1.0052 H       1  UNL1        0.2106
     40 H          20.4768   72.1283    1.0313 H       1  UNL1        0.2106
     41 O          20.9241   69.8168   -0.3640 O.co2   1  UNL1       -0.5466
     42 O          22.9740   69.1390    0.3677 O.co2   1  UNL1       -0.5466
     43 C          22.2114   70.0229    0.0048 C.2     1  UNL1        0.0799
@<TRIPOS>UNITY_ATOM_ATTR
41 1
charge -1
@<TRIPOS>BOND
     1     1     4    1
     2     1    24    1
     3     1     2    1
     4     1     3    2
     5    25    28    1
     6    25    24    1
     7    25    26    1
     8    25    27    2
     9     6    11    1
    10     6    12    1
    11    29    36    1
    12    29    37    1
    13     7     9    1
    14     7    13    1
    15     8    10    1
    16     8    14    1
    17     4     5    1
    18    28    36    1
    19    30    33    1
    20    30    38    1
    21    31    34    1
    22    31    39    1
    23    32    35    1
    24    32    40    1
    25    41    43   ar
    26    15    19    2
    27    42    43   ar
    28    16    22    2
    29    17    12    1
    30    17    19   ar
    31    17    20   ar
    32    18    19   ar
    33    18    22   ar
    34    18    23    1
    35     9    10    1
    36     9    11    1
    37    10    12    1
    38    11     5    1
    39    33    34    1
    40    33    35    1
    41    34    36    1
    42    35    37    1
    43    37    43    1
    44    20    21   ar
    45    21    22   ar
@<TRIPOS>MOLECULE
UDP-glaA
 43 45 0 0 0
SMALL
GASTEIGER

@<TRIPOS>ATOM
      1 P          19.3970   71.0921   -3.4937 P.3     1  UNL1        0.2189
      2 O          19.8304   69.5337   -3.4637 O.3     1  UNL1       -0.4371
      3 O          18.0996   71.4016   -2.8059 O.2     1  UNL1       -0.5170
      4 O          19.4743   71.4881   -5.0598 O.3     1  UNL1       -0.3112
      5 C          18.6501   70.7888   -5.9768 C.3     1  UNL1        0.1811
      6 O          18.4190   73.0561   -6.7384 O.3     1  UNL1       -0.3308
      7 O          16.2199   72.0408   -8.5061 O.3     1  UNL1       -0.3794
      8 O          18.3219   72.2495  -10.2307 O.3     1  UNL1       -0.3779
      9 C          17.4409   71.4052   -8.1278 C.3     1  UNL1        0.1713
     10 C          18.6075   72.0282   -8.8650 C.3     1  UNL1        0.1895
     11 C          17.7388   71.7827   -6.6827 C.3     1  UNL1        0.1764
     12 C          18.8137   73.3212   -8.0946 C.3     1  UNL1        0.2383
     13 H          15.5081   71.6365   -7.9812 H       1  UNL1        0.2105
     14 H          18.0951   71.3899  -10.6253 H       1  UNL1        0.2106
     15 O          21.0382   71.5814   -8.1077 O.2     1  UNL1       -0.2464
     16 O          24.0185   75.0965   -8.1387 O.2     1  UNL1       -0.2670
     17 N          20.1818   73.7544   -8.1067 N.ar    1  UNL1       -0.2551
     18 N          22.5208   73.3329   -8.1226 N.ar    1  UNL1       -0.2743
     19 C          21.2252   72.7995   -8.1115 C.ar    1  UNL1        0.3323
     20 C          20.4787   75.1128   -8.1134 C.ar    1  UNL1        0.0869
     21 C          21.7192   75.6056   -8.1244 C.ar    1  UNL1        0.0795
     22 C          22.8658   74.6756   -8.1292 C.ar    1  UNL1        0.2626
     23 H          23.2868   72.6648   -8.1257 H       1  UNL1        0.1734
     24 O          20.6868   71.8390   -2.8662 O.3     1  UNL1       -0.2703
     25 P          21.1162   73.3973   -2.8711 P.3     1  UNL1        0.2208
     26 O          19.7592   74.1547   -3.3195 O.3     1  UNL1       -0.4371
     27 O          22.3101   73.7046   -3.7289 O.2     1  UNL1       -0.5170
     28 O          21.2994   73.7759   -1.3132 O.3     1  UNL1       -0.2858
     29 O          20.9940   71.7326   -0.1593 O.3     1  UNL1       -0.3226
     30 O          22.0116   74.3297    2.9227 O.3     1  UNL1       -0.3794
     31 O          20.2118   75.1889    0.7947 O.3     1  UNL1       -0.3775
     32 O          21.6431   71.6075    2.6338 O.3     1  UNL1       -0.3792
     33 C          22.0046   73.7670    1.6137 C.3     1  UNL1        0.1718
     34 C          20.5977   73.8355    1.0100 C.3     1  UNL1        0.1968
     35 C          22.4679   72.3101    1.6984 C.3     1  UNL1        0.1723
     36 C          20.5416   73.0807   -0.3239 C.3     1  UNL1        0.2706
     37 C          22.3318   71.6478    0.3291 C.3     1  UNL1        0.1830
     38 H          22.9190   74.2628    3.2659 H       1  UNL1        0.2105
     39 H          19.3217   75.1815    0.4042 H       1  UNL1        0.2106
     40 H          20.7733   71.4568    2.2264 H       1  UNL1        0.2106
     41 O          21.5279   69.4622    0.6128 O.co2   1  UNL1       -0.5466
     42 O          23.7672   69.7074    0.2631 O.co2   1  UNL1       -0.5466
     43 C          22.6507   70.1879    0.3932 C.2     1  UNL1        0.0799
@<TRIPOS>UNITY_ATOM_ATTR
41 1
charge -1
@<TRIPOS>BOND
     1     1     4    1
     2     1    24    1
     3     1     2    1
     4     1     3    2
     5    25    28    1
     6    25    24    1
     7    25    26    1
     8    25    27    2
     9     6    11    1
    10     6    12    1
    11    29    36    1
    12    29    37    1
    13     7     9    1
    14     7    13    1
    15     8    10    1
    16     8    14    1
    17     4     5    1
    18    28    36    1
    19    30    33    1
    20    30    38    1
    21    31    34    1
    22    31    39    1
    23    32    35    1
    24    32    40    1
    25    41    43   ar
    26    15    19    2
    27    42    43   ar
    28    16    22    2
    29    17    12    1
    30    17    19   ar
    31    17    20   ar
    32    18    19   ar
    33    18    22   ar
    34    18    23    1
    35     9    10    1
    36     9    11    1
    37    10    12    1
    38    11     5    1
    39    33    34    1
    40    33    35    1
    41    34    36    1
    42    35    37    1
    43    37    43    1
    44    20    21   ar
    45    21    22   ar
@<TRIPOS>MOLECULE
UDP-glaA
 43 45 0 0 0
SMALL
GASTEIGER

@<TRIPOS>ATOM
      1 P          17.8970   75.3301   -5.2934 P.3     1  UNL1        0.2189
      2 O          16.2806   75.3535   -5.3578 O.3     1  UNL1       -0.4371
      3 O          18.5219   76.5277   -4.6397 O.2     1  UNL1       -0.5170
      4 O          18.3439   75.0508   -6.8224 O.3     1  UNL1       -0.3112
      5 C          19.5426   74.3316   -7.0573 C.3     1  UNL1        0.1811
      6 O          19.6082   72.0244   -7.7258 O.3     1  UNL1       -0.3308
      7 O          17.8791   72.8388  -10.0364 O.3     1  UNL1       -0.3794
      8 O          16.0838   71.7245   -8.3128 O.3     1  UNL1       -0.3779
      9 C          17.8773   73.3212   -8.6928 C.3     1  UNL1        0.1713
     10 C          17.2547   72.2968   -7.7679 C.3     1  UNL1        0.1895
     11 C          19.3195   73.3566   -8.2046 C.3     1  UNL1        0.1764
     12 C          18.3796   71.2877   -7.6114 C.3     1  UNL1        0.2383
     13 H          18.3213   73.5094  -10.5844 H       1  UNL1        0.2105
     14 H          15.4567   72.4481   -8.4840 H       1  UNL1        0.2106
     15 O          16.1500   69.8815   -6.5980 O.2     1  UNL1       -0.2464
     16 O          18.3751   68.7871   -2.7135 O.2     1  UNL1       -0.2670
     17 N          18.3488   70.6254   -6.3387 N.ar    1  UNL1       -0.2551
     18 N          17.2593   69.3379   -4.6641 N.ar    1  UNL1       -0.2743
     19 C          17.1788   69.9478   -5.9229 C.ar    1  UNL1        0.3323
     20 C          19.4698   70.6515   -5.5165 C.ar    1  UNL1        0.0869
     21 C          19.5310   70.0646   -4.3191 C.ar    1  UNL1        0.0795
     22 C          18.3515   69.3369   -3.8104 C.ar    1  UNL1        0.2626
     23 H          16.4296   68.8454   -4.3444 H       1  UNL1        0.1734
     24 O          18.2101   73.9228   -4.5608 O.3     1  UNL1       -0.2703
     25 P          17.9199   73.4263   -3.0502 P.3     1  UNL1        0.2208
     26 O          16.8133   72.2634   -3.2480 O.3     1  UNL1       -0.4371
     27 O          17.5063   74.5224   -2.1103 O.2     1  UNL1       -0.5170
     28 O          19.2613   72.6434   -2.6123 O.3     1  UNL1       -0.2858
     29 O          20.6120   72.7046   -0.6703 O.3     1  UNL1       -0.3226
     30 O          23.4389   72.2472   -3.6834 O.3     1  UNL1       -0.3794
     31 O          21.1657   74.0384   -4.0440 O.3     1  UNL1       -0.3775
     32 O          23.4252   72.1937   -0.9217 O.3     1  UNL1       -0.3792
     33 C          22.1972   72.1014   -2.9998 C.3     1  UNL1        0.1718
     34 C          21.5371   73.4688   -2.7932 C.3     1  UNL1        0.1968
     35 C          22.4527   71.4331   -1.6460 C.3     1  UNL1        0.1723
     36 C          20.2891   73.3418   -1.9107 C.3     1  UNL1        0.2706
     37 C          21.1568   71.3968   -0.8390 C.3     1  UNL1        0.1830
     38 H          23.8212   71.3595   -3.7898 H       1  UNL1        0.2105
     39 H          20.7448   74.8956   -3.8626 H       1  UNL1        0.2106
     40 H          23.0035   73.0087   -0.6008 H       1  UNL1        0.2106
     41 O          21.6292   69.5370    0.5108 O.co2   1  UNL1       -0.5466
     42 O          21.3636   71.5423    1.5622 O.co2   1  UNL1       -0.5466
     43 C          21.3866   70.8696    0.5417 C.2     1  UNL1        0.0799
@<TRIPOS>UNITY_ATOM_ATTR
41 1
charge -1
@<TRIPOS>BOND
     1     1     4    1
     2     1    24    1
     3     1     2    1
     4     1     3    2
     5    25    28    1
     6    25    24    1
     7    25    26    1
     8    25    27    2
     9     6    11    1
    10     6    12    1
    11    29    36    1
    12    29    37    1
    13     7     9    1
    14     7    13    1
    15     8    10    1
    16     8    14    1
    17     4     5    1
    18    28    36    1
    19    30    33    1
    20    30    38    1
    21    31    34    1
    22    31    39    1
    23    32    35    1
    24    32    40    1
    25    41    43   ar
    26    15    19    2
    27    42    43   ar
    28    16    22    2
    29    17    12    1
    30    17    19   ar
    31    17    20   ar
    32    18    19   ar
    33    18    22   ar
    34    18    23    1
    35     9    10    1
    36     9    11    1
    37    10    12    1
    38    11     5    1
    39    33    34    1
    40    33    35    1
    41    34    36    1
    42    35    37    1
    43    37    43    1
    44    20    21   ar
    45    21    22   ar
@<TRIPOS>MOLECULE
UDP-glaA
 43 45 0 0 0
SMALL
GASTEIGER

@<TRIPOS>ATOM
      1 P          21.0494   72.5256   -4.8845 P.3     1  UNL1        0.2189
      2 O          20.3734   73.8155   -4.1798 O.3     1  UNL1       -0.4371
      3 O          22.5042   72.6776   -5.2203 O.2     1  UNL1       -0.5170
      4 O          20.0702   72.2045   -6.1309 O.3     1  UNL1       -0.3112
      5 C          18.6891   72.0127   -5.8754 C.3     1  UNL1        0.1811
      6 O          18.7401   74.0854   -7.0902 O.3     1  UNL1       -0.3308
      7 O          16.2986   73.0918   -8.5195 O.3     1  UNL1       -0.3794
      8 O          18.2834   72.6115  -10.3267 O.3     1  UNL1       -0.3779
      9 C          17.4367   72.3620   -8.0614 C.3     1  UNL1        0.1713
     10 C          18.6279   72.6302   -8.9568 C.3     1  UNL1        0.1895
     11 C          17.8864   72.9735   -6.7410 C.3     1  UNL1        0.1764
     12 C          19.0742   74.0037   -8.4855 C.3     1  UNL1        0.2383
     13 H          15.5735   72.9202   -7.8948 H       1  UNL1        0.2105
     14 H          17.9063   71.7364  -10.5218 H       1  UNL1        0.2106
     15 O          20.8973   71.9876   -9.2518 O.2     1  UNL1       -0.2464
     16 O          24.4732   74.8873   -9.0449 O.2     1  UNL1       -0.2670
     17 N          20.4868   74.2041   -8.6402 N.ar    1  UNL1       -0.2551
     18 N          22.6768   73.4327   -9.1477 N.ar    1  UNL1       -0.2743
     19 C          21.3151   73.1251   -9.0280 C.ar    1  UNL1        0.3323
     20 C          21.0384   75.4592   -8.4081 C.ar    1  UNL1        0.0869
     21 C          22.3386   75.7366   -8.5270 C.ar    1  UNL1        0.0795
     22 C          23.2721   74.6651   -8.9272 C.ar    1  UNL1        0.2626
     23 H          23.2914   72.6721   -9.4249 H       1  UNL1        0.1734
     24 O          20.7191   71.3307   -3.8460 O.3     1  UNL1       -0.2703
     25 P          21.6369   70.6192   -2.7217 P.3     1  UNL1        0.2208
     26 O          23.1336   70.7666   -3.3168 O.3     1  UNL1       -0.4371
     27 O          21.2337   69.2087   -2.3997 O.2     1  UNL1       -0.5170
     28 O          21.5968   71.6279   -1.4628 O.3     1  UNL1       -0.2858
     29 O          23.2544   72.9784   -0.4489 O.3     1  UNL1       -0.3226
     30 O          21.0112   71.7464    2.8267 O.3     1  UNL1       -0.3794
     31 O          21.6388   69.8808    0.6746 O.3     1  UNL1       -0.3775
     32 O          23.0561   73.5433    2.3583 O.3     1  UNL1       -0.3792
     33 C          21.2899   72.1445    1.4873 C.3     1  UNL1        0.1718
     34 C          22.2552   71.1552    0.8255 C.3     1  UNL1        0.1968
     35 C          21.9067   73.5458    1.5053 C.3     1  UNL1        0.1723
     36 C          22.6951   71.6649   -0.5525 C.3     1  UNL1        0.2706
     37 C          22.3430   73.9326    0.0938 C.3     1  UNL1        0.1830
     38 H          20.4002   72.4008    3.2062 H       1  UNL1        0.2105
     39 H          22.2823   69.2928    0.2443 H       1  UNL1        0.2106
     40 H          23.7773   73.0762    1.9035 H       1  UNL1        0.2106
     41 O          23.2528   75.6764   -1.1850 O.co2   1  UNL1       -0.5466
     42 O          23.4440   75.8415    1.0806 O.co2   1  UNL1       -0.5466
     43 C          23.0685   75.2405    0.0845 C.2     1  UNL1        0.0799
@<TRIPOS>UNITY_ATOM_ATTR
41 1
charge -1
@<TRIPOS>BOND
     1     1     4    1
     2     1    24    1
     3     1     2    1
     4     1     3    2
     5    25    28    1
     6    25    24    1
     7    25    26    1
     8    25    27    2
     9     6    11    1
    10     6    12    1
    11    29    36    1
    12    29    37    1
    13     7     9    1
    14     7    13    1
    15     8    10    1
    16     8    14    1
    17     4     5    1
    18    28    36    1
    19    30    33    1
    20    30    38    1
    21    31    34    1
    22    31    39    1
    23    32    35    1
    24    32    40    1
    25    41    43   ar
    26    15    19    2
    27    42    43   ar
    28    16    22    2
    29    17    12    1
    30    17    19   ar
    31    17    20   ar
    32    18    19   ar
    33    18    22   ar
    34    18    23    1
    35     9    10    1
    36     9    11    1
    37    10    12    1
    38    11     5    1
    39    33    34    1
    40    33    35    1
    41    34    36    1
    42    35    37    1
    43    37    43    1
    44    20    21   ar
    45    21    22   ar
@<TRIPOS>MOLECULE
UDP-glaA
 43 45 0 0 0
SMALL
GASTEIGER

@<TRIPOS>ATOM
      1 P          19.5720   69.4988   -3.7244 P.3     1  UNL1        0.2189
      2 O          19.6759   69.9590   -5.2719 O.3     1  UNL1       -0.4371
      3 O          18.9435   68.1539   -3.5049 O.2     1  UNL1       -0.5170
      4 O          18.8406   70.7438   -2.9960 O.3     1  UNL1       -0.3112
      5 C          17.5181   71.0743   -3.3845 C.3     1  UNL1        0.1811
      6 O          18.2546   72.8691   -4.8024 O.3     1  UNL1       -0.3308
      7 O          15.9528   74.4394   -3.6948 O.3     1  UNL1       -0.3794
      8 O          15.0098   73.6328   -6.1230 O.3     1  UNL1       -0.3779
      9 C          16.0337   73.0466   -3.9972 C.3     1  UNL1        0.1713
     10 C          15.9890   72.8311   -5.4953 C.3     1  UNL1        0.1895
     11 C          17.4379   72.5711   -3.6486 C.3     1  UNL1        0.1764
     12 C          17.4022   73.2033   -5.9102 C.3     1  UNL1        0.2383
     13 H          16.0245   74.5309   -2.7294 H       1  UNL1        0.2105
     14 H          14.1504   73.4102   -5.7254 H       1  UNL1        0.2106
     15 O          16.3344   70.7267   -6.7480 O.2     1  UNL1       -0.2464
     16 O          19.1642   70.5277  -10.3800 O.2     1  UNL1       -0.2670
     17 N          17.8406   72.4825   -7.0710 N.ar    1  UNL1       -0.2551
     18 N          17.7446   70.6290   -8.5557 N.ar    1  UNL1       -0.2743
     19 C          17.2392   71.2462   -7.4039 C.ar    1  UNL1        0.3323
     20 C          18.8564   73.0011   -7.8664 C.ar    1  UNL1        0.0869
     21 C          19.3269   72.4008   -8.9618 C.ar    1  UNL1        0.0795
     22 C          18.7535   71.1057   -9.3783 C.ar    1  UNL1        0.2626
     23 H          17.3275   69.7388   -8.8139 H       1  UNL1        0.1734
     24 O          21.0991   69.6212   -3.2066 O.3     1  UNL1       -0.2703
     25 P          22.0277   70.9171   -2.9404 P.3     1  UNL1        0.2208
     26 O          21.3335   72.0635   -3.8460 O.3     1  UNL1       -0.4371
     27 O          23.4859   70.6993   -3.2266 O.2     1  UNL1       -0.5170
     28 O          21.7039   71.3466   -1.4190 O.3     1  UNL1       -0.2858
     29 O          23.2787   72.8341   -0.4669 O.3     1  UNL1       -0.3226
     30 O          20.9859   71.7650    2.8315 O.3     1  UNL1       -0.3794
     31 O          21.7470   69.7687    0.8462 O.3     1  UNL1       -0.3775
     32 O          22.9754   73.6008    2.2825 O.3     1  UNL1       -0.3792
     33 C          21.2895   72.0716    1.4735 C.3     1  UNL1        0.1718
     34 C          22.3105   71.0742    0.9158 C.3     1  UNL1        0.1968
     35 C          21.8528   73.4936    1.4009 C.3     1  UNL1        0.1723
     36 C          22.7722   71.4955   -0.4849 C.3     1  UNL1        0.2706
     37 C          22.3165   73.7898   -0.0236 C.3     1  UNL1        0.1830
     38 H          20.3397   72.4214    3.1430 H       1  UNL1        0.2105
     39 H          22.4245   69.1758    0.4797 H       1  UNL1        0.2106
     40 H          23.7268   73.1295    1.8844 H       1  UNL1        0.2106
     41 O          24.2968   75.0198    0.2396 O.co2   1  UNL1       -0.5466
     42 O          22.4512   76.1608   -0.4596 O.co2   1  UNL1       -0.5466
     43 C          22.9927   75.1209   -0.1133 C.2     1  UNL1        0.0799
@<TRIPOS>UNITY_ATOM_ATTR
41 1
charge -1
@<TRIPOS>BOND
     1     1     4    1
     2     1    24    1
     3     1     2    1
     4     1     3    2
     5    25    28    1
     6    25    24    1
     7    25    26    1
     8    25    27    2
     9     6    11    1
    10     6    12    1
    11    29    36    1
    12    29    37    1
    13     7     9    1
    14     7    13    1
    15     8    10    1
    16     8    14    1
    17     4     5    1
    18    28    36    1
    19    30    33    1
    20    30    38    1
    21    31    34    1
    22    31    39    1
    23    32    35    1
    24    32    40    1
    25    41    43   ar
    26    15    19    2
    27    42    43   ar
    28    16    22    2
    29    17    12    1
    30    17    19   ar
    31    17    20   ar
    32    18    19   ar
    33    18    22   ar
    34    18    23    1
    35     9    10    1
    36     9    11    1
    37    10    12    1
    38    11     5    1
    39    33    34    1
    40    33    35    1
    41    34    36    1
    42    35    37    1
    43    37    43    1
    44    20    21   ar
    45    21    22   ar
@<TRIPOS>MOLECULE
UDP-glaA
 43 45 0 0 0
SMALL
GASTEIGER

@<TRIPOS>ATOM
      1 P          22.8010   73.3754   -5.0549 P.3     1  UNL1        0.2189
      2 O          23.1534   74.8956   -5.4815 O.3     1  UNL1       -0.4371
      3 O          23.8256   72.7086   -4.1845 O.2     1  UNL1       -0.5170
      4 O          22.4861   72.6393   -6.4601 O.3     1  UNL1       -0.3112
      5 C          21.2387   72.8828   -7.0878 C.3     1  UNL1        0.1811
      6 O          19.1516   71.7101   -6.8801 O.3     1  UNL1       -0.3308
      7 O          20.2935   69.7181   -8.8087 O.3     1  UNL1       -0.3794
      8 O          18.6670   71.2219  -10.3990 O.3     1  UNL1       -0.3779
      9 C          20.4656   71.1345   -8.7655 C.3     1  UNL1        0.1713
     10 C          19.2099   71.8310   -9.2458 C.3     1  UNL1        0.1895
     11 C          20.5244   71.5561   -7.3032 C.3     1  UNL1        0.1764
     12 C          18.2985   71.7082   -8.0366 C.3     1  UNL1        0.2383
     13 H          21.1060   69.3166   -8.4563 H       1  UNL1        0.2105
     14 H          19.3500   71.2449  -11.0912 H       1  UNL1        0.2106
     15 O          18.6766   74.2385   -9.2324 O.2     1  UNL1       -0.2464
     16 O          14.6766   75.8210   -7.5788 O.2     1  UNL1       -0.2670
     17 N          17.3720   72.7994   -7.9354 N.ar    1  UNL1       -0.2551
     18 N          16.6847   75.0250   -8.4077 N.ar    1  UNL1       -0.2743
     19 C          17.6568   74.0296   -8.5728 C.ar    1  UNL1        0.3323
     20 C          16.1957   72.6449   -7.2102 C.ar    1  UNL1        0.0869
     21 C          15.2785   73.6035   -7.0625 C.ar    1  UNL1        0.0795
     22 C          15.4999   74.9186   -7.6959 C.ar    1  UNL1        0.2626
     23 H          16.8687   75.9181   -8.8569 H       1  UNL1        0.1734
     24 O          21.3367   73.5177   -4.3834 O.3     1  UNL1       -0.2703
     25 P          20.5372   72.5471   -3.3678 P.3     1  UNL1        0.2208
     26 O          21.0425   71.0701   -3.7909 O.3     1  UNL1       -0.4371
     27 O          19.0459   72.7232   -3.3933 O.2     1  UNL1       -0.5170
     28 O          21.2155   72.8139   -1.9281 O.3     1  UNL1       -0.2858
     29 O          21.0133   71.2945   -0.1254 O.3     1  UNL1       -0.3226
     30 O          21.9536   74.8419    1.8269 O.3     1  UNL1       -0.3794
     31 O          20.0926   74.8348   -0.4187 O.3     1  UNL1       -0.3775
     32 O          21.7008   72.1793    2.5172 O.3     1  UNL1       -0.3792
     33 C          21.9554   73.8565    0.7976 C.3     1  UNL1        0.1718
     34 C          20.5398   73.6577    0.2456 C.3     1  UNL1        0.1968
     35 C          22.4828   72.5396    1.3738 C.3     1  UNL1        0.1723
     36 C          20.5007   72.4819   -0.7385 C.3     1  UNL1        0.2706
     37 C          22.3594   71.4352    0.3263 C.3     1  UNL1        0.1830
     38 H          22.8671   74.9327    2.1476 H       1  UNL1        0.2105
     39 H          19.1991   74.6585   -0.7583 H       1  UNL1        0.2106
     40 H          20.8336   71.8637    2.2113 H       1  UNL1        0.2106
     41 O          22.2293   69.1006    0.1344 O.co2   1  UNL1       -0.5466
     42 O          23.4265   69.9332    1.8868 O.co2   1  UNL1       -0.5466
     43 C          22.7424   70.1030    0.8879 C.2     1  UNL1        0.0799
@<TRIPOS>UNITY_ATOM_ATTR
41 1
charge -1
@<TRIPOS>BOND
     1     1     4    1
     2     1    24    1
     3     1     2    1
     4     1     3    2
     5    25    28    1
     6    25    24    1
     7    25    26    1
     8    25    27    2
     9     6    11    1
    10     6    12    1
    11    29    36    1
    12    29    37    1
    13     7     9    1
    14     7    13    1
    15     8    10    1
    16     8    14    1
    17     4     5    1
    18    28    36    1
    19    30    33    1
    20    30    38    1
    21    31    34    1
    22    31    39    1
    23    32    35    1
    24    32    40    1
    25    41    43   ar
    26    15    19    2
    27    42    43   ar
    28    16    22    2
    29    17    12    1
    30    17    19   ar
    31    17    20   ar
    32    18    19   ar
    33    18    22   ar
    34    18    23    1
    35     9    10    1
    36     9    11    1
    37    10    12    1
    38    11     5    1
    39    33    34    1
    40    33    35    1
    41    34    36    1
    42    35    37    1
    43    37    43    1
    44    20    21   ar
    45    21    22   ar
@<TRIPOS>MOLECULE
UDP-glaA
 43 45 0 0 0
SMALL
GASTEIGER

@<TRIPOS>ATOM
      1 P          23.7020   74.8739   -4.3445 P.3     1  UNL1        0.2189
      2 O          24.4674   76.0863   -5.0938 O.3     1  UNL1       -0.4371
      3 O          24.5433   73.6586   -4.0849 O.2     1  UNL1       -0.5170
      4 O          22.3788   74.6340   -5.2430 O.3     1  UNL1       -0.3112
      5 C          22.3132   73.4749   -6.0563 C.3     1  UNL1        0.1811
      6 O          21.4070   72.9629   -8.2221 O.3     1  UNL1       -0.3308
      7 O          22.0927   75.7846   -8.9695 O.3     1  UNL1       -0.3794
      8 O          19.4135   75.9316   -8.4838 O.3     1  UNL1       -0.3779
      9 C          21.6254   75.2685   -7.7233 C.3     1  UNL1        0.1713
     10 C          20.1522   74.9310   -7.8139 C.3     1  UNL1        0.1895
     11 C          22.2546   73.8968   -7.5175 C.3     1  UNL1        0.1764
     12 C          20.1758   73.6155   -8.5735 C.3     1  UNL1        0.2383
     13 H          23.0465   75.9491   -8.8757 H       1  UNL1        0.2105
     14 H          19.5384   76.7637   -7.9958 H       1  UNL1        0.2106
     15 O          17.5917   73.7965   -9.6982 O.2     1  UNL1       -0.2464
     16 O          16.0384   70.2830   -7.1524 O.2     1  UNL1       -0.2670
     17 N          19.0775   72.7607   -8.2236 N.ar    1  UNL1       -0.2551
     18 N          16.8198   72.0471   -8.4294 N.ar    1  UNL1       -0.2743
     19 C          17.8198   72.9354   -8.8467 C.ar    1  UNL1        0.3323
     20 C          19.2523   71.7620   -7.2719 C.ar    1  UNL1        0.0869
     21 C          18.2891   70.9227   -6.8852 C.ar    1  UNL1        0.0795
     22 C          16.9458   71.0386   -7.4866 C.ar    1  UNL1        0.2626
     23 H          15.9071   72.1546   -8.8636 H       1  UNL1        0.1734
     24 O          23.1145   75.5829   -3.0150 O.3     1  UNL1       -0.2703
     25 P          22.9742   75.0414   -1.4986 P.3     1  UNL1        0.2208
     26 O          21.7421   75.9070   -0.9080 O.3     1  UNL1       -0.4371
     27 O          24.2383   75.1323   -0.6926 O.2     1  UNL1       -0.5170
     28 O          22.3869   73.5461   -1.6510 O.3     1  UNL1       -0.2858
     29 O          22.9625   72.2446    0.2396 O.3     1  UNL1       -0.3226
     30 O          21.0594   69.4589   -2.1889 O.3     1  UNL1       -0.3794
     31 O          22.8915   71.4173   -3.3351 O.3     1  UNL1       -0.3775
     32 O          22.0141   69.5404    0.4019 O.3     1  UNL1       -0.3792
     33 C          21.3435   70.7226   -1.5951 C.3     1  UNL1        0.1718
     34 C          22.7694   71.1663   -1.9391 C.3     1  UNL1        0.1968
     35 C          21.1838   70.6036   -0.0769 C.3     1  UNL1        0.1723
     36 C          23.1439   72.4376   -1.1671 C.3     1  UNL1        0.2706
     37 C          21.6211   71.9065    0.5889 C.3     1  UNL1        0.1830
     38 H          20.1501   69.2172   -1.9433 H       1  UNL1        0.2105
     39 H          23.8052   71.7035   -3.5029 H       1  UNL1        0.2106
     40 H          22.9396   69.8370    0.3789 H       1  UNL1        0.2106
     41 O          22.7482   71.2195    2.5283 O.co2   1  UNL1       -0.5466
     42 O          20.6910   72.1627    2.8022 O.co2   1  UNL1       -0.5466
     43 C          21.6048   71.7914    2.0800 C.2     1  UNL1        0.0799
@<TRIPOS>UNITY_ATOM_ATTR
41 1
charge -1
@<TRIPOS>BOND
     1     1     4    1
     2     1    24    1
     3     1     2    1
     4     1     3    2
     5    25    28    1
     6    25    24    1
     7    25    26    1
     8    25    27    2
     9     6    11    1
    10     6    12    1
    11    29    36    1
    12    29    37    1
    13     7     9    1
    14     7    13    1
    15     8    10    1
    16     8    14    1
    17     4     5    1
    18    28    36    1
    19    30    33    1
    20    30    38    1
    21    31    34    1
    22    31    39    1
    23    32    35    1
    24    32    40    1
    25    41    43   ar
    26    15    19    2
    27    42    43   ar
    28    16    22    2
    29    17    12    1
    30    17    19   ar
    31    17    20   ar
    32    18    19   ar
    33    18    22   ar
    34    18    23    1
    35     9    10    1
    36     9    11    1
    37    10    12    1
    38    11     5    1
    39    33    34    1
    40    33    35    1
    41    34    36    1
    42    35    37    1
    43    37    43    1
    44    20    21   ar
    45    21    22   ar
@<TRIPOS>MOLECULE
UDP-glaA
 43 45 0 0 0
SMALL
GASTEIGER

@<TRIPOS>ATOM
      1 P          22.1015   72.8949   -5.0466 P.3     1  UNL1        0.2189
      2 O          21.0620   74.1345   -5.0481 O.3     1  UNL1       -0.4371
      3 O          23.4779   73.2237   -4.5472 O.2     1  UNL1       -0.5170
      4 O          22.0205   72.3164   -6.5547 O.3     1  UNL1       -0.3112
      5 C          21.2452   73.0208   -7.5097 C.3     1  UNL1        0.1811
      6 O          19.8317   71.0785   -7.4510 O.3     1  UNL1       -0.3308
      7 O          19.0348   71.8044  -10.2491 O.3     1  UNL1       -0.3794
      8 O          16.9279   72.7124   -8.7753 O.3     1  UNL1       -0.3779
      9 C          19.3304   72.6581   -9.1439 C.3     1  UNL1        0.1713
     10 C          18.1910   72.6400   -8.1469 C.3     1  UNL1        0.1895
     11 C          20.4611   72.0207   -8.3472 C.3     1  UNL1        0.1764
     12 C          18.4145   71.3161   -7.4360 C.3     1  UNL1        0.2383
     13 H          19.8069   71.8176  -10.8401 H       1  UNL1        0.2105
     14 H          16.9065   73.5340   -9.2955 H       1  UNL1        0.2106
     15 O          18.0129   73.6714   -5.9305 O.2     1  UNL1       -0.2464
     16 O          16.6674   71.2896   -2.2216 O.2     1  UNL1       -0.2670
     17 N          17.9593   71.3408   -6.0753 N.ar    1  UNL1       -0.2551
     18 N          17.3437   72.4837   -4.0844 N.ar    1  UNL1       -0.2743
     19 C          17.7910   72.5771   -5.4089 C.ar    1  UNL1        0.3323
     20 C          17.6848   70.1486   -5.4144 C.ar    1  UNL1        0.0869
     21 C          17.2585   70.0763   -4.1516 C.ar    1  UNL1        0.0795
     22 C          17.0578   71.3217   -3.3846 C.ar    1  UNL1        0.2626
     23 H          17.2161   73.3601   -3.5855 H       1  UNL1        0.1734
     24 O          21.3229   71.7702   -4.1840 O.3     1  UNL1       -0.2703
     25 P          21.8268   70.8255   -2.9731 P.3     1  UNL1        0.2208
     26 O          23.4141   70.6829   -3.2496 O.3     1  UNL1       -0.4371
     27 O          21.0960   69.5177   -2.8670 O.2     1  UNL1       -0.5170
     28 O          21.7232   71.7556   -1.6585 O.3     1  UNL1       -0.2858
     29 O          23.3556   73.0229   -0.5058 O.3     1  UNL1       -0.3226
     30 O          20.9104   71.7255    2.5954 O.3     1  UNL1       -0.3794
     31 O          21.6083   69.9277    0.4075 O.3     1  UNL1       -0.3775
     32 O          23.0199   73.4853    2.3071 O.3     1  UNL1       -0.3792
     33 C          21.2702   72.1670    1.2893 C.3     1  UNL1        0.1718
     34 C          22.2459   71.1790    0.6410 C.3     1  UNL1        0.1968
     35 C          21.9185   73.5502    1.3952 C.3     1  UNL1        0.1723
     36 C          22.7715   71.7293   -0.6907 C.3     1  UNL1        0.2706
     37 C          22.4394   73.9791    0.0252 C.3     1  UNL1        0.1830
     38 H          20.2956   72.3805    2.9675 H       1  UNL1        0.2105
     39 H          22.2598   69.3401   -0.0111 H       1  UNL1        0.2106
     40 H          23.7532   73.0172    1.8730 H       1  UNL1        0.2106
     41 O          22.6613   76.0769    1.0518 O.co2   1  UNL1       -0.5466
     42 O          24.1645   75.5559   -0.5809 O.co2   1  UNL1       -0.5466
     43 C          23.1953   75.2671    0.1059 C.2     1  UNL1        0.0799
@<TRIPOS>UNITY_ATOM_ATTR
41 1
charge -1
@<TRIPOS>BOND
     1     1     4    1
     2     1    24    1
     3     1     2    1
     4     1     3    2
     5    25    28    1
     6    25    24    1
     7    25    26    1
     8    25    27    2
     9     6    11    1
    10     6    12    1
    11    29    36    1
    12    29    37    1
    13     7     9    1
    14     7    13    1
    15     8    10    1
    16     8    14    1
    17     4     5    1
    18    28    36    1
    19    30    33    1
    20    30    38    1
    21    31    34    1
    22    31    39    1
    23    32    35    1
    24    32    40    1
    25    41    43   ar
    26    15    19    2
    27    42    43   ar
    28    16    22    2
    29    17    12    1
    30    17    19   ar
    31    17    20   ar
    32    18    19   ar
    33    18    22   ar
    34    18    23    1
    35     9    10    1
    36     9    11    1
    37    10    12    1
    38    11     5    1
    39    33    34    1
    40    33    35    1
    41    34    36    1
    42    35    37    1
    43    37    43    1
    44    20    21   ar
    45    21    22   ar
