@<TRIPOS>MOLECULE
GDU
 43 45 0 0 0
SMALL
GASTEIGER

@<TRIPOS>ATOM
      1 P          20.9717   70.7895   -3.5500 P.3     1  UNL1        0.2189
      2 O          20.4584   69.5044   -4.0740 O.2     1  UNL1       -0.5170
      3 O          21.9300   71.4727   -4.6490 O.3     1  UNL1       -0.4371
      4 O          19.7378   71.7703   -3.2299 O.3     1  UNL1       -0.3112
      5 C          18.7272   70.9746   -2.6085 C.3     1  UNL1        0.1811
      6 C          17.0418   70.5669   -5.7581 C.3     1  UNL1        0.2383
      7 C          17.0477   69.1482   -5.1335 C.3     1  UNL1        0.1895
      8 O          15.8974   68.4055   -5.5439 O.3     1  UNL1       -0.3779
      9 C          16.9913   69.4613   -3.6156 C.3     1  UNL1        0.1713
     10 C          17.4957   70.9128   -3.5139 C.3     1  UNL1        0.1764
     11 O          17.8437   71.3418   -4.8417 O.3     1  UNL1       -0.3308
     12 O          15.6504   69.3556   -3.1331 O.3     1  UNL1       -0.3794
     13 H          15.9616   67.5368   -5.1230 H       1  UNL1        0.2106
     14 H          15.3719   68.4412   -3.2780 H       1  UNL1        0.2105
     15 N          17.6513   70.5494   -7.0890 N.ar    1  UNL1       -0.2551
     16 C          16.8689   70.4707   -8.1798 C.ar    1  UNL1        0.3323
     17 N          17.4038   70.4565   -9.4149 N.ar    1  UNL1       -0.2743
     18 C          18.7396   70.5113   -9.5780 C.ar    1  UNL1        0.2626
     19 C          19.5765   70.5885   -8.4379 C.ar    1  UNL1        0.0795
     20 C          19.0137   70.6055   -7.2109 C.ar    1  UNL1        0.0869
     21 O          15.6620   70.4212   -8.0484 O.2     1  UNL1       -0.2464
     22 O          19.2250   70.4936  -10.6955 O.2     1  UNL1       -0.2670
     23 H          16.8238   70.4037  -10.1912 H       1  UNL1        0.1734
     24 O          21.8098   70.5217   -2.2015 O.3     1  UNL1       -0.2703
     25 P          22.9536   71.6516   -2.1307 P.3     1  UNL1        0.2208
     26 O          24.2239   71.1006   -2.6520 O.2     1  UNL1       -0.5170
     27 O          22.5124   72.9180   -3.0228 O.3     1  UNL1       -0.4371
     28 O          23.1559   72.1170   -0.6035 O.3     1  UNL1       -0.2858
     29 C          23.2301   70.9291    0.1859 C.3     1  UNL1        0.2704
     30 C          22.0149   70.8563    1.1118 C.3     1  UNL1        0.1967
     31 C          21.9943   72.0997    2.0062 C.3     1  UNL1        0.1715
     32 C          23.3484   72.2159    2.7151 C.3     1  UNL1        0.1694
     33 C          24.4632   72.1875    1.6666 C.3     1  UNL1        0.1761
     34 O          20.8199   70.8073    0.3301 O.3     1  UNL1       -0.3775
     35 O          20.9512   71.9768    2.9754 O.3     1  UNL1       -0.3794
     36 O          23.5092   71.1227    3.6202 O.3     1  UNL1       -0.3794
     37 O          24.4276   70.9487    0.9595 O.3     1  UNL1       -0.3258
     38 H          20.8794   70.0151   -0.2210 H       1  UNL1        0.2106
     39 H          20.1229   71.8946    2.4861 H       1  UNL1        0.2105
     40 H          22.7844   71.1774    4.2566 H       1  UNL1        0.2105
     41 C          25.8185   72.3374    2.3615 C.3     1  UNL1        0.1693
     42 O          26.0796   73.7215    2.6008 O.3     1  UNL1       -0.3794
     43 H          26.9400   73.7722    3.0394 H       1  UNL1        0.2105
@<TRIPOS>BOND
     1    15    16   ar
     2    15    20   ar
     3    15     6    1
     4    16    17   ar
     5    16    21    2
     6    17    18   ar
     7    17    23    1
     8    18    19   ar
     9    18    22    2
    10    19    20   ar
    11     6     7    1
    12     6    11    1
    13     7     8    1
    14     7     9    1
    15     8    13    1
    16     9    10    1
    17     9    12    1
    18    10    11    1
    19    10     5    1
    20    12    14    1
    21     5     4    1
    22     4     1    1
    23     1     2    2
    24     1     3    1
    25     1    24    1
    26    24    25    1
    27    25    26    2
    28    25    27    1
    29    25    28    1
    30    28    29    1
    31    29    30    1
    32    29    37    1
    33    30    31    1
    34    30    34    1
    35    31    32    1
    36    31    35    1
    37    32    33    1
    38    32    36    1
    39    33    41    1
    40    33    37    1
    41    41    42    1
    42    34    38    1
    43    35    39    1
    44    36    40    1
    45    42    43    1
@<TRIPOS>MOLECULE
GDU
 43 45 0 0 0
SMALL
GASTEIGER

@<TRIPOS>ATOM
      1 P          20.6202   71.7210   -2.0299 P.3     1  UNL1        0.2189
      2 O          21.4666   70.9154   -2.9378 O.2     1  UNL1       -0.5170
      3 O          21.3426   73.1287   -1.7311 O.3     1  UNL1       -0.4371
      4 O          19.1925   71.9865   -2.7212 O.3     1  UNL1       -0.3112
      5 C          18.3941   70.8267   -2.4805 C.3     1  UNL1        0.1811
      6 C          16.8933   70.5396   -5.7351 C.3     1  UNL1        0.2383
      7 C          16.8576   69.0998   -5.1618 C.3     1  UNL1        0.1895
      8 O          15.7303   68.3787   -5.6643 O.3     1  UNL1       -0.3779
      9 C          16.7141   69.3598   -3.6396 C.3     1  UNL1        0.1713
     10 C          17.2172   70.8038   -3.4575 C.3     1  UNL1        0.1764
     11 O          17.6434   71.2773   -4.7468 O.3     1  UNL1       -0.3308
     12 O          15.3470   69.2449   -3.2398 O.3     1  UNL1       -0.3794
     13 H          15.7667   67.4954   -5.2714 H       1  UNL1        0.2106
     14 H          15.0740   68.3378   -3.4329 H       1  UNL1        0.2105
     15 N          17.5791   70.5653   -7.0281 N.ar    1  UNL1       -0.2551
     16 C          16.8630   70.4982   -8.1643 C.ar    1  UNL1        0.3323
     17 N          17.4687   70.5235   -9.3661 N.ar    1  UNL1       -0.2743
     18 C          18.8105   70.6071   -9.4496 C.ar    1  UNL1        0.2626
     19 C          19.5781   70.6728   -8.2611 C.ar    1  UNL1        0.0795
     20 C          18.9449   70.6498   -7.0690 C.ar    1  UNL1        0.0869
     21 O          15.6518   70.4229   -8.1048 O.2     1  UNL1       -0.2464
     22 O          19.3600   70.6253  -10.5369 O.2     1  UNL1       -0.2670
     23 H          16.9359   70.4784  -10.1759 H       1  UNL1        0.1734
     24 O          20.4084   70.9239   -0.6470 O.3     1  UNL1       -0.2703
     25 P          21.7776   71.0644    0.1869 P.3     1  UNL1        0.2208
     26 O          21.8866   69.9448    1.1480 O.2     1  UNL1       -0.5170
     27 O          23.0291   71.0251   -0.8261 O.3     1  UNL1       -0.4371
     28 O          21.7795   72.4612    0.9863 O.3     1  UNL1       -0.2858
     29 C          22.4243   72.2221    2.2380 C.3     1  UNL1        0.2704
     30 C          21.6185   72.8795    3.3596 C.3     1  UNL1        0.1967
     31 C          21.5139   74.3825    3.0835 C.3     1  UNL1        0.1715
     32 C          22.9261   74.9428    2.8801 C.3     1  UNL1        0.1694
     33 C          23.6325   74.1296    1.7926 C.3     1  UNL1        0.1761
     34 O          20.3100   72.3078    3.4073 O.3     1  UNL1       -0.3775
     35 O          20.8922   75.0326    4.1940 O.3     1  UNL1       -0.3794
     36 O          23.6575   74.8506    4.1034 O.3     1  UNL1       -0.3794
     37 O          23.7411   72.7677    2.2041 O.3     1  UNL1       -0.3258
     38 H          20.4245   71.3626    3.5755 H       1  UNL1        0.2106
     39 H          20.0147   74.6417    4.2917 H       1  UNL1        0.2105
     40 H          23.1744   75.3711    4.7583 H       1  UNL1        0.2105
     41 C          25.0319   74.7027    1.5575 C.3     1  UNL1        0.1693
     42 O          25.9773   73.9930    2.3597 O.3     1  UNL1       -0.3794
     43 H          26.8441   74.3835    2.1820 H       1  UNL1        0.2105
@<TRIPOS>BOND
     1    15    16   ar
     2    15    20   ar
     3    15     6    1
     4    16    17   ar
     5    16    21    2
     6    17    18   ar
     7    17    23    1
     8    18    19   ar
     9    18    22    2
    10    19    20   ar
    11     6     7    1
    12     6    11    1
    13     7     8    1
    14     7     9    1
    15     8    13    1
    16     9    10    1
    17     9    12    1
    18    10    11    1
    19    10     5    1
    20    12    14    1
    21     5     4    1
    22     4     1    1
    23     1     2    2
    24     1     3    1
    25     1    24    1
    26    24    25    1
    27    25    26    2
    28    25    27    1
    29    25    28    1
    30    28    29    1
    31    29    30    1
    32    29    37    1
    33    30    31    1
    34    30    34    1
    35    31    32    1
    36    31    35    1
    37    32    33    1
    38    32    36    1
    39    33    41    1
    40    33    37    1
    41    41    42    1
    42    34    38    1
    43    35    39    1
    44    36    40    1
    45    42    43    1
@<TRIPOS>MOLECULE
GDU
 43 45 0 0 0
SMALL
GASTEIGER

@<TRIPOS>ATOM
      1 P          20.7714   71.8660   -1.8811 P.3     1  UNL1        0.2189
      2 O          21.5719   70.6455   -2.1242 O.2     1  UNL1       -0.5170
      3 O          20.9330   72.8711   -3.1288 O.3     1  UNL1       -0.4371
      4 O          19.2226   71.4673   -1.7103 O.3     1  UNL1       -0.3112
      5 C          19.0018   70.3100   -2.5180 C.3     1  UNL1        0.1811
      6 C          17.2178   70.4539   -5.6363 C.3     1  UNL1        0.2383
      7 C          17.0127   69.0007   -5.1374 C.3     1  UNL1        0.1895
      8 O          15.7532   68.4846   -5.5740 O.3     1  UNL1       -0.3779
      9 C          17.0329   69.1801   -3.5970 C.3     1  UNL1        0.1713
     10 C          17.7599   70.5211   -3.3860 C.3     1  UNL1        0.1764
     11 O          18.1471   71.0098   -4.6819 O.3     1  UNL1       -0.3308
     12 O          15.7007   69.2393   -3.0835 O.3     1  UNL1       -0.3794
     13 H          15.6881   67.5819   -5.2323 H       1  UNL1        0.2106
     14 H          15.2800   68.3957   -3.2981 H       1  UNL1        0.2105
     15 N          17.7933   70.4632   -6.9822 N.ar    1  UNL1       -0.2551
     16 C          16.9823   70.4376   -8.0545 C.ar    1  UNL1        0.3323
     17 N          17.4857   70.4489   -9.3028 N.ar    1  UNL1       -0.2743
     18 C          18.8181   70.4762   -9.4984 C.ar    1  UNL1        0.2626
     19 C          19.6848   70.4976   -8.3782 C.ar    1  UNL1        0.0795
     20 C          19.1532   70.4899   -7.1373 C.ar    1  UNL1        0.0869
     21 O          15.7782   70.4133   -7.8938 O.2     1  UNL1       -0.2464
     22 O          19.2749   70.4817  -10.6279 O.2     1  UNL1       -0.2670
     23 H          16.8855   70.4345  -10.0652 H       1  UNL1        0.1734
     24 O          21.2916   72.5896   -0.5401 O.3     1  UNL1       -0.2703
     25 P          22.1061   71.4848    0.3003 P.3     1  UNL1        0.2208
     26 O          21.2235   70.3318    0.5843 O.2     1  UNL1       -0.5170
     27 O          23.3770   70.9891   -0.5560 O.3     1  UNL1       -0.4371
     28 O          22.6123   72.1285    1.6857 O.3     1  UNL1       -0.2858
     29 C          22.4253   73.5405    1.5801 C.3     1  UNL1        0.2704
     30 C          23.7608   74.2075    1.2471 C.3     1  UNL1        0.1967
     31 C          24.7718   73.8768    2.3494 C.3     1  UNL1        0.1715
     32 C          24.1668   74.2677    3.7025 C.3     1  UNL1        0.1694
     33 C          22.8003   73.5940    3.8501 C.3     1  UNL1        0.1761
     34 O          24.2405   73.7186   -0.0067 O.3     1  UNL1       -0.3775
     35 O          25.9783   74.6106    2.1302 O.3     1  UNL1       -0.3794
     36 O          24.0148   75.6865    3.7659 O.3     1  UNL1       -0.3794
     37 O          21.9267   74.0459    2.8164 O.3     1  UNL1       -0.3258
     38 H          23.5712   73.9419   -0.6678 H       1  UNL1        0.2106
     39 H          26.3158   74.3427    1.2661 H       1  UNL1        0.2105
     40 H          24.8967   76.0673    3.6630 H       1  UNL1        0.2105
     41 C          22.2025   73.9504    5.2130 C.3     1  UNL1        0.1693
     42 O          22.3316   72.8344    6.0954 O.3     1  UNL1       -0.3794
     43 H          21.9445   73.0998    6.9410 H       1  UNL1        0.2105
@<TRIPOS>BOND
     1    15    16   ar
     2    15    20   ar
     3    15     6    1
     4    16    17   ar
     5    16    21    2
     6    17    18   ar
     7    17    23    1
     8    18    19   ar
     9    18    22    2
    10    19    20   ar
    11     6     7    1
    12     6    11    1
    13     7     8    1
    14     7     9    1
    15     8    13    1
    16     9    10    1
    17     9    12    1
    18    10    11    1
    19    10     5    1
    20    12    14    1
    21     5     4    1
    22     4     1    1
    23     1     2    2
    24     1     3    1
    25     1    24    1
    26    24    25    1
    27    25    26    2
    28    25    27    1
    29    25    28    1
    30    28    29    1
    31    29    30    1
    32    29    37    1
    33    30    31    1
    34    30    34    1
    35    31    32    1
    36    31    35    1
    37    32    33    1
    38    32    36    1
    39    33    41    1
    40    33    37    1
    41    41    42    1
    42    34    38    1
    43    35    39    1
    44    36    40    1
    45    42    43    1
@<TRIPOS>MOLECULE
GDU
 43 45 0 0 0
SMALL
GASTEIGER

@<TRIPOS>ATOM
      1 P          21.4117   71.8610   -2.7865 P.3     1  UNL1        0.2189
      2 O          22.2505   72.3658   -1.6770 O.2     1  UNL1       -0.5170
      3 O          21.8328   70.3454   -3.1309 O.3     1  UNL1       -0.4371
      4 O          19.8639   71.9022   -2.3513 O.3     1  UNL1       -0.3112
      5 C          19.3324   70.5977   -2.5887 C.3     1  UNL1        0.1811
      6 C          17.3872   70.5313   -5.6118 C.3     1  UNL1        0.2383
      7 C          17.2857   69.0893   -5.0520 C.3     1  UNL1        0.1895
      8 O          16.0351   68.4928   -5.4033 O.3     1  UNL1       -0.3779
      9 C          17.3745   69.3277   -3.5221 C.3     1  UNL1        0.1713
     10 C          18.0386   70.7114   -3.3969 C.3     1  UNL1        0.1764
     11 O          18.3328   71.1700   -4.7278 O.3     1  UNL1       -0.3308
     12 O          16.0689   69.3375   -2.9414 O.3     1  UNL1       -0.3794
     13 H          16.0358   67.6016   -5.0271 H       1  UNL1        0.2106
     14 H          15.6835   68.4658   -3.1038 H       1  UNL1        0.2105
     15 N          17.8923   70.5192   -6.9856 N.ar    1  UNL1       -0.2551
     16 C          17.0283   70.4420   -8.0131 C.ar    1  UNL1        0.3323
     17 N          17.4665   70.4328   -9.2859 N.ar    1  UNL1       -0.2743
     18 C          18.7857   70.4911   -9.5513 C.ar    1  UNL1        0.2626
     19 C          19.7078   70.5670   -8.4788 C.ar    1  UNL1        0.0795
     20 C          19.2412   70.5789   -7.2121 C.ar    1  UNL1        0.0869
     21 O          15.8353   70.3893   -7.7893 O.2     1  UNL1       -0.2464
     22 O          19.1835   70.4780  -10.7029 O.2     1  UNL1       -0.2670
     23 H          16.8285   70.3809  -10.0153 H       1  UNL1        0.1734
     24 O          21.6297   72.7857   -4.0865 O.3     1  UNL1       -0.2703
     25 P          23.1208   73.3833   -3.9892 P.3     1  UNL1        0.2208
     26 O          23.2464   74.1978   -2.7605 O.2     1  UNL1       -0.5170
     27 O          24.1819   72.1725   -3.9405 O.3     1  UNL1       -0.4371
     28 O          23.4166   74.3029   -5.2764 O.3     1  UNL1       -0.2858
     29 C          22.2243   74.3121   -6.0626 C.3     1  UNL1        0.2704
     30 C          22.5464   73.8405   -7.4815 C.3     1  UNL1        0.1967
     31 C          23.6017   74.7703   -8.0884 C.3     1  UNL1        0.1715
     32 C          23.1026   76.2155   -7.9789 C.3     1  UNL1        0.1694
     33 C          22.7400   76.5077   -6.5208 C.3     1  UNL1        0.1761
     34 O          23.0511   72.5046   -7.4389 O.3     1  UNL1       -0.3775
     35 O          23.8057   74.4331   -9.4622 O.3     1  UNL1       -0.3794
     36 O          21.9512   76.3874   -8.8063 O.3     1  UNL1       -0.3794
     37 O          21.6926   75.6343   -6.1010 O.3     1  UNL1       -0.3258
     38 H          22.3586   71.9572   -7.0443 H       1  UNL1        0.2106
     39 H          24.1063   73.5158   -9.4835 H       1  UNL1        0.2105
     40 H          22.2245   76.1879   -9.7112 H       1  UNL1        0.2105
     41 C          22.2727   77.9594   -6.3943 C.3     1  UNL1        0.1693
     42 O          22.7784   78.7192   -7.4934 O.3     1  UNL1       -0.3794
     43 H          22.4615   79.6254   -7.3766 H       1  UNL1        0.2105
@<TRIPOS>BOND
     1    15    16   ar
     2    15    20   ar
     3    15     6    1
     4    16    17   ar
     5    16    21    2
     6    17    18   ar
     7    17    23    1
     8    18    19   ar
     9    18    22    2
    10    19    20   ar
    11     6     7    1
    12     6    11    1
    13     7     8    1
    14     7     9    1
    15     8    13    1
    16     9    10    1
    17     9    12    1
    18    10    11    1
    19    10     5    1
    20    12    14    1
    21     5     4    1
    22     4     1    1
    23     1     2    2
    24     1     3    1
    25     1    24    1
    26    24    25    1
    27    25    26    2
    28    25    27    1
    29    25    28    1
    30    28    29    1
    31    29    30    1
    32    29    37    1
    33    30    31    1
    34    30    34    1
    35    31    32    1
    36    31    35    1
    37    32    33    1
    38    32    36    1
    39    33    41    1
    40    33    37    1
    41    41    42    1
    42    34    38    1
    43    35    39    1
    44    36    40    1
    45    42    43    1
@<TRIPOS>MOLECULE
GDU
 43 45 0 0 0
SMALL
GASTEIGER

@<TRIPOS>ATOM
      1 P          20.7204   71.3406   -1.0713 P.3     1  UNL1        0.2189
      2 O          20.9807   72.7934   -0.9655 O.2     1  UNL1       -0.5170
      3 O          21.0209   70.6370    0.3456 O.3     1  UNL1       -0.4371
      4 O          19.1824   71.0986   -1.4752 O.3     1  UNL1       -0.3112
      5 C          19.1845   70.2385   -2.6157 C.3     1  UNL1        0.1811
      6 C          17.3290   70.4606   -5.6874 C.3     1  UNL1        0.2383
      7 C          17.0939   69.0097   -5.1948 C.3     1  UNL1        0.1895
      8 O          15.8095   68.5341   -5.6038 O.3     1  UNL1       -0.3779
      9 C          17.1574   69.1754   -3.6541 C.3     1  UNL1        0.1713
     10 C          17.9283   70.4929   -3.4508 C.3     1  UNL1        0.1764
     11 O          18.2975   70.9811   -4.7522 O.3     1  UNL1       -0.3308
     12 O          15.8406   69.2689   -3.1070 O.3     1  UNL1       -0.3794
     13 H          15.7265   67.6309   -5.2676 H       1  UNL1        0.2106
     14 H          15.3903   68.4398   -3.3176 H       1  UNL1        0.2105
     15 N          17.8712   70.4644   -7.0471 N.ar    1  UNL1       -0.2551
     16 C          17.0339   70.4331   -8.0989 C.ar    1  UNL1        0.3323
     17 N          17.5064   70.4395   -9.3593 N.ar    1  UNL1       -0.2743
     18 C          18.8335   70.4675   -9.5878 C.ar    1  UNL1        0.2626
     19 C          19.7275   70.4948   -8.4895 C.ar    1  UNL1        0.0795
     20 C          19.2268   70.4921   -7.2359 C.ar    1  UNL1        0.0869
     21 O          15.8343   70.4081   -7.9085 O.2     1  UNL1       -0.2464
     22 O          19.2623   70.4684  -10.7283 O.2     1  UNL1       -0.2670
     23 H          16.8876   70.4209  -10.1066 H       1  UNL1        0.1734
     24 O          21.6789   70.7053   -2.1984 O.3     1  UNL1       -0.2703
     25 P          23.0660   71.5195   -2.1442 P.3     1  UNL1        0.2208
     26 O          23.5021   71.6575   -0.7371 O.2     1  UNL1       -0.5170
     27 O          24.1894   70.7212   -2.9778 O.3     1  UNL1       -0.4371
     28 O          22.8580   72.9796   -2.7883 O.3     1  UNL1       -0.2858
     29 C          24.0345   73.2714   -3.5435 C.3     1  UNL1        0.2704
     30 C          24.4116   74.7412   -3.3512 C.3     1  UNL1        0.1967
     31 C          23.2432   75.6196   -3.8090 C.3     1  UNL1        0.1715
     32 C          22.8655   75.2252   -5.2413 C.3     1  UNL1        0.1694
     33 C          22.6036   73.7179   -5.2898 C.3     1  UNL1        0.1761
     34 O          24.6859   74.9882   -1.9710 O.3     1  UNL1       -0.3775
     35 O          23.6334   76.9941   -3.7740 O.3     1  UNL1       -0.3794
     36 O          23.9358   75.5579   -6.1266 O.3     1  UNL1       -0.3794
     37 O          23.7880   73.0115   -4.9235 O.3     1  UNL1       -0.3258
     38 H          25.4210   74.4103   -1.7249 H       1  UNL1        0.2106
     39 H          23.8729   77.1938   -2.8602 H       1  UNL1        0.2105
     40 H          24.0688   76.5123   -6.0588 H       1  UNL1        0.2105
     41 C          22.1920   73.3189   -6.7088 C.3     1  UNL1        0.1693
     42 O          22.9632   72.1918   -7.1283 O.3     1  UNL1       -0.3794
     43 H          22.6734   71.9723   -8.0245 H       1  UNL1        0.2105
@<TRIPOS>BOND
     1    15    16   ar
     2    15    20   ar
     3    15     6    1
     4    16    17   ar
     5    16    21    2
     6    17    18   ar
     7    17    23    1
     8    18    19   ar
     9    18    22    2
    10    19    20   ar
    11     6     7    1
    12     6    11    1
    13     7     8    1
    14     7     9    1
    15     8    13    1
    16     9    10    1
    17     9    12    1
    18    10    11    1
    19    10     5    1
    20    12    14    1
    21     5     4    1
    22     4     1    1
    23     1     2    2
    24     1     3    1
    25     1    24    1
    26    24    25    1
    27    25    26    2
    28    25    27    1
    29    25    28    1
    30    28    29    1
    31    29    30    1
    32    29    37    1
    33    30    31    1
    34    30    34    1
    35    31    32    1
    36    31    35    1
    37    32    33    1
    38    32    36    1
    39    33    41    1
    40    33    37    1
    41    41    42    1
    42    34    38    1
    43    35    39    1
    44    36    40    1
    45    42    43    1
@<TRIPOS>MOLECULE
GDU
 43 45 0 0 0
SMALL
GASTEIGER

@<TRIPOS>ATOM
      1 P          16.6323   69.5544   -2.8322 P.3     1  UNL1        0.2189
      2 O          16.2505   68.9314   -4.1189 O.2     1  UNL1       -0.5170
      3 O          16.1560   71.0926   -2.8186 O.3     1  UNL1       -0.4371
      4 O          15.9270   68.7635   -1.6224 O.3     1  UNL1       -0.3112
      5 C          15.1322   69.7155   -0.9134 C.3     1  UNL1        0.1811
      6 C          12.6202   68.0195    1.0207 C.3     1  UNL1        0.2383
      7 C          12.3993   69.5226    1.3286 C.3     1  UNL1        0.1895
      8 O          11.0220   69.7901    1.6017 O.3     1  UNL1       -0.3779
      9 C          12.8409   70.1942    0.0022 C.3     1  UNL1        0.1713
     10 C          13.7363   69.1382   -0.6720 C.3     1  UNL1        0.1764
     11 O          13.8206   68.0126    0.2192 O.3     1  UNL1       -0.3308
     12 O          11.7037   70.4887   -0.8114 O.3     1  UNL1       -0.3794
     13 H          10.9529   70.7376    1.7846 H       1  UNL1        0.2106
     14 H          11.1541   71.1073   -0.3113 H       1  UNL1        0.2105
     15 N          12.8211   67.2616    2.2569 N.ar    1  UNL1       -0.2551
     16 C          12.5780   65.9392    2.2754 C.ar    1  UNL1        0.3323
     17 N          12.7581   65.2186    3.3979 N.ar    1  UNL1       -0.2743
     18 C          13.1777   65.8163    4.5297 C.ar    1  UNL1        0.2626
     19 C          13.4322   67.2097    4.5266 C.ar    1  UNL1        0.0795
     20 C          13.2475   67.9078    3.3860 C.ar    1  UNL1        0.0869
     21 O          12.1994   65.3860    1.2621 O.2     1  UNL1       -0.2464
     22 O          13.3365   65.1657    5.5475 O.2     1  UNL1       -0.2670
     23 H          12.5819   64.2643    3.3921 H       1  UNL1        0.1734
     24 O          18.2317   69.4877   -2.6585 O.3     1  UNL1       -0.2703
     25 P          18.8653   70.4161   -3.8103 P.3     1  UNL1        0.2208
     26 O          18.8177   71.8321   -3.3841 O.2     1  UNL1       -0.5170
     27 O          20.3957   69.9842   -4.0660 O.3     1  UNL1       -0.4371
     28 O          18.0237   70.2355   -5.1702 O.3     1  UNL1       -0.2858
     29 C          17.9930   71.5111   -5.8117 C.3     1  UNL1        0.2704
     30 C          16.7141   71.6329   -6.6418 C.3     1  UNL1        0.1967
     31 C          16.6830   70.5054   -7.6781 C.3     1  UNL1        0.1715
     32 C          17.9880   70.5420   -8.4815 C.3     1  UNL1        0.1694
     33 C          19.1711   70.5009   -7.5112 C.3     1  UNL1        0.1761
     34 O          15.5757   71.5290   -5.7848 O.3     1  UNL1       -0.3775
     35 O          15.5706   70.6907   -8.5560 O.3     1  UNL1       -0.3794
     36 O          18.0395   71.7418   -9.2547 O.3     1  UNL1       -0.3794
     37 O          19.1333   71.6433   -6.6572 O.3     1  UNL1       -0.3258
     38 H          15.6404   72.2519   -5.1460 H       1  UNL1        0.2106
     39 H          14.7757   70.6727   -8.0082 H       1  UNL1        0.2105
     40 H          17.2750   71.7272   -9.8452 H       1  UNL1        0.2105
     41 C          20.4796   70.5024   -8.3048 C.3     1  UNL1        0.1693
     42 O          20.8452   71.8479   -8.6164 O.3     1  UNL1       -0.3794
     43 H          21.6729   71.8048   -9.1146 H       1  UNL1        0.2105
@<TRIPOS>BOND
     1    15    16   ar
     2    15    20   ar
     3    15     6    1
     4    16    17   ar
     5    16    21    2
     6    17    18   ar
     7    17    23    1
     8    18    19   ar
     9    18    22    2
    10    19    20   ar
    11     6     7    1
    12     6    11    1
    13     7     8    1
    14     7     9    1
    15     8    13    1
    16     9    10    1
    17     9    12    1
    18    10    11    1
    19    10     5    1
    20    12    14    1
    21     5     4    1
    22     4     1    1
    23     1     2    2
    24     1     3    1
    25     1    24    1
    26    24    25    1
    27    25    26    2
    28    25    27    1
    29    25    28    1
    30    28    29    1
    31    29    30    1
    32    29    37    1
    33    30    31    1
    34    30    34    1
    35    31    32    1
    36    31    35    1
    37    32    33    1
    38    32    36    1
    39    33    41    1
    40    33    37    1
    41    41    42    1
    42    34    38    1
    43    35    39    1
    44    36    40    1
    45    42    43    1
@<TRIPOS>MOLECULE
GDU
 43 45 0 0 0
SMALL
GASTEIGER

@<TRIPOS>ATOM
      1 P          20.4403   71.0662   -2.2408 P.3     1  UNL1        0.2189
      2 O          20.3175   72.5405   -2.2716 O.2     1  UNL1       -0.5170
      3 O          20.5343   70.5675   -0.7126 O.3     1  UNL1       -0.4371
      4 O          19.1531   70.4052   -2.9428 O.3     1  UNL1       -0.3112
      5 C          18.0339   71.2304   -2.6156 C.3     1  UNL1        0.1811
      6 C          16.7277   70.5109   -5.8872 C.3     1  UNL1        0.2383
      7 C          16.8131   69.1291   -5.1898 C.3     1  UNL1        0.1895
      8 O          15.7914   68.2519   -5.6692 O.3     1  UNL1       -0.3779
      9 C          16.5712   69.4999   -3.7034 C.3     1  UNL1        0.1713
     10 C          16.9136   70.9996   -3.6313 C.3     1  UNL1        0.1764
     11 O          17.3498   71.4052   -4.9403 O.3     1  UNL1       -0.3308
     12 O          15.2057   69.2740   -3.3481 O.3     1  UNL1       -0.3794
     13 H          15.8997   67.4139   -5.1982 H       1  UNL1        0.2106
     14 H          15.0370   68.3298   -3.4700 H       1  UNL1        0.2105
     15 N          17.4682   70.5004   -7.1499 N.ar    1  UNL1       -0.2551
     16 C          16.7993   70.5459   -8.3156 C.ar    1  UNL1        0.3323
     17 N          17.4562   70.5410   -9.4905 N.ar    1  UNL1       -0.2743
     18 C          18.8015   70.4801   -9.5171 C.ar    1  UNL1        0.2626
     19 C          19.5191   70.4259   -8.2971 C.ar    1  UNL1        0.0795
     20 C          18.8356   70.4365   -7.1329 C.ar    1  UNL1        0.0869
     21 O          15.5856   70.6015   -8.3075 O.2     1  UNL1       -0.2464
     22 O          19.3968   70.4708  -10.5801 O.2     1  UNL1       -0.2670
     23 H          16.9575   70.5786  -10.3221 H       1  UNL1        0.1734
     24 O          21.7712   70.6230   -3.0313 O.3     1  UNL1       -0.2703
     25 P          22.9973   71.4278   -2.3689 P.3     1  UNL1        0.2208
     26 O          24.2765   70.8556   -2.8435 O.2     1  UNL1       -0.5170
     27 O          22.9131   72.9789   -2.7945 O.3     1  UNL1       -0.4371
     28 O          22.9163   71.3073   -0.7661 O.3     1  UNL1       -0.2858
     29 C          23.8264   72.2692   -0.2311 C.3     1  UNL1        0.2704
     30 C          24.4451   71.7234    1.0568 C.3     1  UNL1        0.1967
     31 C          23.3263   71.4218    2.0586 C.3     1  UNL1        0.1715
     32 C          22.4689   72.6809    2.2295 C.3     1  UNL1        0.1694
     33 C          21.9981   73.1532    0.8517 C.3     1  UNL1        0.1761
     34 O          25.1685   70.5252    0.7699 O.3     1  UNL1       -0.3775
     35 O          23.8950   71.0510    3.3162 O.3     1  UNL1       -0.3794
     36 O          23.2444   73.7061    2.8521 O.3     1  UNL1       -0.3794
     37 O          23.1274   73.4810    0.0434 O.3     1  UNL1       -0.3258
     38 H          25.8559   70.7603    0.1319 H       1  UNL1        0.2106
     39 H          24.4333   70.2650    3.1591 H       1  UNL1        0.2105
     40 H          23.5232   73.3634    3.7112 H       1  UNL1        0.2105
     41 C          21.1126   74.3908    1.0138 C.3     1  UNL1        0.1693
     42 O          20.2044   74.4729   -0.0860 O.3     1  UNL1       -0.3794
     43 H          19.6656   75.2637    0.0545 H       1  UNL1        0.2105
@<TRIPOS>BOND
     1    15    16   ar
     2    15    20   ar
     3    15     6    1
     4    16    17   ar
     5    16    21    2
     6    17    18   ar
     7    17    23    1
     8    18    19   ar
     9    18    22    2
    10    19    20   ar
    11     6     7    1
    12     6    11    1
    13     7     8    1
    14     7     9    1
    15     8    13    1
    16     9    10    1
    17     9    12    1
    18    10    11    1
    19    10     5    1
    20    12    14    1
    21     5     4    1
    22     4     1    1
    23     1     2    2
    24     1     3    1
    25     1    24    1
    26    24    25    1
    27    25    26    2
    28    25    27    1
    29    25    28    1
    30    28    29    1
    31    29    30    1
    32    29    37    1
    33    30    31    1
    34    30    34    1
    35    31    32    1
    36    31    35    1
    37    32    33    1
    38    32    36    1
    39    33    41    1
    40    33    37    1
    41    41    42    1
    42    34    38    1
    43    35    39    1
    44    36    40    1
    45    42    43    1
@<TRIPOS>MOLECULE
GDU
 43 45 0 0 0
SMALL
GASTEIGER

@<TRIPOS>ATOM
      1 P          17.7214   69.7988   -2.4859 P.3     1  UNL1        0.2189
      2 O          17.4185   68.3874   -2.1607 O.2     1  UNL1       -0.5170
      3 O          16.3993   70.6936   -2.2754 O.3     1  UNL1       -0.4371
      4 O          18.8907   70.3335   -1.5197 O.3     1  UNL1       -0.3112
      5 C          19.1996   71.6632   -1.9405 C.3     1  UNL1        0.1811
      6 C          21.2902   72.8842    0.7177 C.3     1  UNL1        0.2383
      7 C          21.5126   73.8864   -0.4439 C.3     1  UNL1        0.1895
      8 O          21.8013   75.1931    0.0584 O.3     1  UNL1       -0.3779
      9 C          20.1384   73.8611   -1.1623 C.3     1  UNL1        0.1713
     10 C          19.5078   72.5286   -0.7172 C.3     1  UNL1        0.1764
     11 O          20.4625   71.8605    0.1256 O.3     1  UNL1       -0.3308
     12 O          19.3355   74.9667   -0.7439 O.3     1  UNL1       -0.3794
     13 H          21.9288   75.7657   -0.7109 H       1  UNL1        0.2106
     14 H          19.8104   75.7697   -0.9977 H       1  UNL1        0.2105
     15 N          22.5645   72.3213    1.1672 N.ar    1  UNL1       -0.2551
     16 C          22.6749   70.9959    1.3661 C.ar    1  UNL1        0.3323
     17 N          23.8362   70.4525    1.7758 N.ar    1  UNL1       -0.2743
     18 C          24.9094   71.2337    2.0038 C.ar    1  UNL1        0.2626
     19 C          24.8062   72.6322    1.8040 C.ar    1  UNL1        0.0795
     20 C          23.6309   73.1506    1.3887 C.ar    1  UNL1        0.0869
     21 O          21.7155   70.2784    1.1641 O.2     1  UNL1       -0.2464
     22 O          25.9597   70.7433    2.3793 O.2     1  UNL1       -0.2670
     23 H          23.8992   69.4935    1.9101 H       1  UNL1        0.1734
     24 O          18.2005   69.9042   -4.0195 O.3     1  UNL1       -0.2703
     25 P          16.8712   69.8812   -4.9263 P.3     1  UNL1        0.2208
     26 O          16.0480   68.7062   -4.5648 O.2     1  UNL1       -0.5170
     27 O          16.0248   71.2277   -4.6716 O.3     1  UNL1       -0.4371
     28 O          17.2816   69.7927   -6.4799 O.3     1  UNL1       -0.2858
     29 C          17.4965   71.1312   -6.9293 C.3     1  UNL1        0.2704
     30 C          17.4518   71.1685   -8.4577 C.3     1  UNL1        0.1967
     31 C          18.5305   70.2324   -9.0111 C.3     1  UNL1        0.1715
     32 C          19.8779   70.6151   -8.3884 C.3     1  UNL1        0.1694
     33 C          19.7390   70.6178   -6.8641 C.3     1  UNL1        0.1761
     34 O          16.1660   70.7396   -8.9095 O.3     1  UNL1       -0.3775
     35 O          18.6001   70.3670  -10.4322 O.3     1  UNL1       -0.3794
     36 O          20.2612   71.9147   -8.8404 O.3     1  UNL1       -0.3794
     37 O          18.7676   71.5861   -6.4709 O.3     1  UNL1       -0.3258
     38 H          15.5194   71.3515   -8.5322 H       1  UNL1        0.2106
     39 H          17.7310   70.1287  -10.7787 H       1  UNL1        0.2105
     40 H          20.3307   71.8671   -9.8028 H       1  UNL1        0.2105
     41 C          21.0883   70.9654   -6.2313 C.3     1  UNL1        0.1693
     42 O          20.9844   70.8738   -4.8094 O.3     1  UNL1       -0.3794
     43 H          21.8536   71.0991   -4.4501 H       1  UNL1        0.2105
@<TRIPOS>BOND
     1    15    16   ar
     2    15    20   ar
     3    15     6    1
     4    16    17   ar
     5    16    21    2
     6    17    18   ar
     7    17    23    1
     8    18    19   ar
     9    18    22    2
    10    19    20   ar
    11     6     7    1
    12     6    11    1
    13     7     8    1
    14     7     9    1
    15     8    13    1
    16     9    10    1
    17     9    12    1
    18    10    11    1
    19    10     5    1
    20    12    14    1
    21     5     4    1
    22     4     1    1
    23     1     2    2
    24     1     3    1
    25     1    24    1
    26    24    25    1
    27    25    26    2
    28    25    27    1
    29    25    28    1
    30    28    29    1
    31    29    30    1
    32    29    37    1
    33    30    31    1
    34    30    34    1
    35    31    32    1
    36    31    35    1
    37    32    33    1
    38    32    36    1
    39    33    41    1
    40    33    37    1
    41    41    42    1
    42    34    38    1
    43    35    39    1
    44    36    40    1
    45    42    43    1
@<TRIPOS>MOLECULE
GDU
 43 45 0 0 0
SMALL
GASTEIGER

@<TRIPOS>ATOM
      1 P          23.3805   72.4130   -3.1926 P.3     1  UNL1        0.2189
      2 O          23.5450   70.9644   -2.9395 O.2     1  UNL1       -0.5170
      3 O          24.4550   72.8909   -4.2927 O.3     1  UNL1       -0.4371
      4 O          21.8937   72.6979   -3.7357 O.3     1  UNL1       -0.3112
      5 C          21.9796   73.8303   -4.6022 C.3     1  UNL1        0.1811
      6 C          19.3971   72.3184   -6.5953 C.3     1  UNL1        0.2383
      7 C          18.8423   73.7212   -6.2387 C.3     1  UNL1        0.1895
      8 O          17.9872   74.2099   -7.2747 O.3     1  UNL1       -0.3779
      9 C          20.1377   74.5687   -6.1450 C.3     1  UNL1        0.1713
     10 C          21.2494   73.5287   -5.9122 C.3     1  UNL1        0.1764
     11 O          20.6216   72.2371   -5.8353 O.3     1  UNL1       -0.3308
     12 O          20.3576   75.2816   -7.3638 O.3     1  UNL1       -0.3794
     13 H          17.6769   75.0815   -6.9921 H       1  UNL1        0.2106
     14 H          19.6014   75.8720   -7.4833 H       1  UNL1        0.2105
     15 N          18.4623   71.2709   -6.1808 N.ar    1  UNL1       -0.2551
     16 C          18.2522   71.0444   -4.8721 C.ar    1  UNL1        0.3323
     17 N          17.3953   70.0897   -4.4644 N.ar    1  UNL1       -0.2743
     18 C          16.7384   69.3354   -5.3664 C.ar    1  UNL1        0.2626
     19 C          16.9541   69.5589   -6.7483 C.ar    1  UNL1        0.0795
     20 C          17.8157   70.5256   -7.1298 C.ar    1  UNL1        0.0869
     21 O          18.8372   71.7171   -4.0467 O.2     1  UNL1       -0.2464
     22 O          15.9661   68.4679   -4.9983 O.2     1  UNL1       -0.2670
     23 H          17.2526   69.9428   -3.5158 H       1  UNL1        0.1734
     24 O          23.6183   73.2264   -1.8236 O.3     1  UNL1       -0.2703
     25 P          22.9788   72.3439   -0.6394 P.3     1  UNL1        0.2208
     26 O          21.6409   71.8637   -1.0497 O.2     1  UNL1       -0.5170
     27 O          23.9320   71.0814   -0.3366 O.3     1  UNL1       -0.4371
     28 O          22.8434   73.2431    0.6884 O.3     1  UNL1       -0.2858
     29 C          23.2103   72.4129    1.7910 C.3     1  UNL1        0.2704
     30 C          21.9828   72.1583    2.6673 C.3     1  UNL1        0.1967
     31 C          21.4349   73.5012    3.1602 C.3     1  UNL1        0.1715
     32 C          22.5713   74.2749    3.8382 C.3     1  UNL1        0.1694
     33 C          23.7543   74.3707    2.8716 C.3     1  UNL1        0.1761
     34 O          20.9819   71.4824    1.9042 O.3     1  UNL1       -0.3775
     35 O          20.3796   73.2745    4.0968 O.3     1  UNL1       -0.3794
     36 O          22.9728   73.5910    5.0261 O.3     1  UNL1       -0.3794
     37 O          24.2245   73.0613    2.5550 O.3     1  UNL1       -0.3258
     38 H          21.3718   70.6482    1.6092 H       1  UNL1        0.2106
     39 H          19.6951   72.7766    3.6322 H       1  UNL1        0.2105
     40 H          22.1973   73.5493    5.6007 H       1  UNL1        0.2105
     41 C          24.8822   75.1714    3.5263 C.3     1  UNL1        0.1693
     42 O          24.3421   75.9940    4.5620 O.3     1  UNL1       -0.3794
     43 H          25.0834   76.4801    4.9486 H       1  UNL1        0.2105
@<TRIPOS>BOND
     1    15    16   ar
     2    15    20   ar
     3    15     6    1
     4    16    17   ar
     5    16    21    2
     6    17    18   ar
     7    17    23    1
     8    18    19   ar
     9    18    22    2
    10    19    20   ar
    11     6     7    1
    12     6    11    1
    13     7     8    1
    14     7     9    1
    15     8    13    1
    16     9    10    1
    17     9    12    1
    18    10    11    1
    19    10     5    1
    20    12    14    1
    21     5     4    1
    22     4     1    1
    23     1     2    2
    24     1     3    1
    25     1    24    1
    26    24    25    1
    27    25    26    2
    28    25    27    1
    29    25    28    1
    30    28    29    1
    31    29    30    1
    32    29    37    1
    33    30    31    1
    34    30    34    1
    35    31    32    1
    36    31    35    1
    37    32    33    1
    38    32    36    1
    39    33    41    1
    40    33    37    1
    41    41    42    1
    42    34    38    1
    43    35    39    1
    44    36    40    1
    45    42    43    1
@<TRIPOS>MOLECULE
GDU
 43 45 0 0 0
SMALL
GASTEIGER

@<TRIPOS>ATOM
      1 P          20.4814   71.2457   -0.7190 P.3     1  UNL1        0.2189
      2 O          20.0615   72.6407   -0.4599 O.2     1  UNL1       -0.5170
      3 O          19.2296   70.4046   -1.2834 O.3     1  UNL1       -0.4371
      4 O          21.6683   71.2349   -1.8044 O.3     1  UNL1       -0.3112
      5 C          21.2960   72.1526   -2.8338 C.3     1  UNL1        0.1811
      6 C          20.4545   71.0543   -6.1524 C.3     1  UNL1        0.2383
      7 C          20.9506   72.5111   -6.3388 C.3     1  UNL1        0.1895
      8 O          21.5691   72.6796   -7.6164 O.3     1  UNL1       -0.3779
      9 C          21.9919   72.6481   -5.1977 C.3     1  UNL1        0.1713
     10 C          21.6034   71.5400   -4.2014 C.3     1  UNL1        0.1764
     11 O          20.4312   70.8872   -4.7189 O.3     1  UNL1       -0.3308
     12 O          23.3133   72.4383   -5.6994 O.3     1  UNL1       -0.3794
     13 H          21.8537   73.6027   -7.6687 H       1  UNL1        0.2106
     14 H          23.4749   73.1262   -6.3593 H       1  UNL1        0.2105
     15 N          19.1124   70.8885   -6.7129 N.ar    1  UNL1       -0.2551
     16 C          18.9605   70.3231   -7.9235 C.ar    1  UNL1        0.3323
     17 N          17.7374   70.1558   -8.4600 N.ar    1  UNL1       -0.2743
     18 C          16.6406   70.5636   -7.7929 C.ar    1  UNL1        0.2626
     19 C          16.7858   71.1661   -6.5192 C.ar    1  UNL1        0.0795
     20 C          18.0237   71.3179   -6.0026 C.ar    1  UNL1        0.0869
     21 O          19.9405   69.9499   -8.5370 O.2     1  UNL1       -0.2464
     22 O          15.5334   70.4169   -8.2798 O.2     1  UNL1       -0.2670
     23 H          17.6460   69.7419   -9.3330 H       1  UNL1        0.1734
     24 O          20.9999   70.5789    0.6517 O.3     1  UNL1       -0.2703
     25 P          22.4438   71.2172    0.9641 P.3     1  UNL1        0.2208
     26 O          23.4517   70.1375    1.0518 O.2     1  UNL1       -0.5170
     27 O          22.8483   72.2334   -0.2182 O.3     1  UNL1       -0.4371
     28 O          22.3882   72.0154    2.3605 O.3     1  UNL1       -0.2858
     29 C          22.4669   73.4065    2.0467 C.3     1  UNL1        0.2704
     30 C          23.6385   74.0337    2.8037 C.3     1  UNL1        0.1967
     31 C          23.4274   73.8295    4.3070 C.3     1  UNL1        0.1715
     32 C          22.0432   74.3685    4.6852 C.3     1  UNL1        0.1694
     33 C          20.9915   73.7138    3.7861 C.3     1  UNL1        0.1761
     34 O          24.8583   73.4084    2.4008 O.3     1  UNL1       -0.3775
     35 O          24.4352   74.5358    5.0337 O.3     1  UNL1       -0.3794
     36 O          22.0167   75.7852    4.5061 O.3     1  UNL1       -0.3794
     37 O          21.2495   74.0463    2.4227 O.3     1  UNL1       -0.3258
     38 H          24.9463   73.5557    1.4493 H       1  UNL1        0.2106
     39 H          25.2861   74.1734    4.7563 H       1  UNL1        0.2105
     40 H          22.6967   76.1533    5.0853 H       1  UNL1        0.2105
     41 C          19.6014   74.2195    4.1784 C.3     1  UNL1        0.1693
     42 O          19.2709   75.3628    3.3882 O.3     1  UNL1       -0.3794
     43 H          18.3897   75.6493    3.6652 H       1  UNL1        0.2105
@<TRIPOS>BOND
     1    15    16   ar
     2    15    20   ar
     3    15     6    1
     4    16    17   ar
     5    16    21    2
     6    17    18   ar
     7    17    23    1
     8    18    19   ar
     9    18    22    2
    10    19    20   ar
    11     6     7    1
    12     6    11    1
    13     7     8    1
    14     7     9    1
    15     8    13    1
    16     9    10    1
    17     9    12    1
    18    10    11    1
    19    10     5    1
    20    12    14    1
    21     5     4    1
    22     4     1    1
    23     1     2    2
    24     1     3    1
    25     1    24    1
    26    24    25    1
    27    25    26    2
    28    25    27    1
    29    25    28    1
    30    28    29    1
    31    29    30    1
    32    29    37    1
    33    30    31    1
    34    30    34    1
    35    31    32    1
    36    31    35    1
    37    32    33    1
    38    32    36    1
    39    33    41    1
    40    33    37    1
    41    41    42    1
    42    34    38    1
    43    35    39    1
    44    36    40    1
    45    42    43    1
@<TRIPOS>MOLECULE
GDU
 43 45 0 0 0
SMALL
GASTEIGER

@<TRIPOS>ATOM
      1 P          15.1408   71.0732   -1.6129 P.3     1  UNL1        0.2189
      2 O          14.2773   71.5833   -2.7008 O.2     1  UNL1       -0.5170
      3 O          14.9007   71.9479   -0.2824 O.3     1  UNL1       -0.4371
      4 O          14.7783   69.5345   -1.3161 O.3     1  UNL1       -0.3112
      5 C          14.3598   69.4637    0.0478 C.3     1  UNL1        0.1811
      6 C          13.2353   66.8354    2.2285 C.3     1  UNL1        0.2383
      7 C          11.9325   67.5117    1.7301 C.3     1  UNL1        0.1895
      8 O          10.8621   66.5669    1.6601 O.3     1  UNL1       -0.3779
      9 C          12.3382   67.9937    0.3130 C.3     1  UNL1        0.1713
     10 C          13.8765   68.0466    0.3619 C.3     1  UNL1        0.1764
     11 O          14.2781   67.6772    1.6924 O.3     1  UNL1       -0.3308
     12 O          11.8941   67.0641   -0.6772 O.3     1  UNL1       -0.3794
     13 H          10.0848   67.0490    1.3453 H       1  UNL1        0.2106
     14 H          10.9297   67.0316   -0.6183 H       1  UNL1        0.2105
     15 N          13.2847   66.8213    3.6914 N.ar    1  UNL1       -0.2551
     16 C          12.8924   65.7234    4.3613 C.ar    1  UNL1        0.3323
     17 N          12.9313   65.6832    5.7062 N.ar    1  UNL1       -0.2743
     18 C          13.3570   66.7522    6.4064 C.ar    1  UNL1        0.2626
     19 C          13.7678   67.9177    5.7143 C.ar    1  UNL1        0.0795
     20 C          13.7228   67.9296    4.3651 C.ar    1  UNL1        0.0869
     21 O          12.5064   64.7511    3.7434 O.2     1  UNL1       -0.2464
     22 O          13.3880   66.7184    7.6240 O.2     1  UNL1       -0.2670
     23 H          12.6484   64.8809    6.1733 H       1  UNL1        0.1734
     24 O          16.6845   71.1862   -2.0565 O.3     1  UNL1       -0.2703
     25 P          16.9978   69.9098   -2.9853 P.3     1  UNL1        0.2208
     26 O          17.8696   68.9672   -2.2501 O.2     1  UNL1       -0.5170
     27 O          15.6173   69.1746   -3.3699 O.3     1  UNL1       -0.4371
     28 O          17.7401   70.3920   -4.3293 O.3     1  UNL1       -0.2858
     29 C          16.7932   71.1592   -5.0740 C.3     1  UNL1        0.2704
     30 C          16.5437   70.4875   -6.4252 C.3     1  UNL1        0.1967
     31 C          17.8709   70.3834   -7.1829 C.3     1  UNL1        0.1715
     32 C          18.5049   71.7771   -7.2545 C.3     1  UNL1        0.1694
     33 C          18.6075   72.3506   -5.8390 C.3     1  UNL1        0.1761
     34 O          16.0054   69.1804   -6.2178 O.3     1  UNL1       -0.3775
     35 O          17.6324   69.8933   -8.5040 O.3     1  UNL1       -0.3794
     36 O          17.6935   72.6302   -8.0631 O.3     1  UNL1       -0.3794
     37 O          17.3030   72.4754   -5.2744 O.3     1  UNL1       -0.3258
     38 H          15.1767   69.2937   -5.7327 H       1  UNL1        0.2106
     39 H          17.2238   69.0235   -8.4104 H       1  UNL1        0.2105
     40 H          17.6524   72.2280   -8.9405 H       1  UNL1        0.2105
     41 C          19.2710   73.7285   -5.8956 C.3     1  UNL1        0.1693
     42 O          20.0097   73.8508   -7.1123 O.3     1  UNL1       -0.3794
     43 H          20.4104   74.7310   -7.1090 H       1  UNL1        0.2105
@<TRIPOS>BOND
     1    15    16   ar
     2    15    20   ar
     3    15     6    1
     4    16    17   ar
     5    16    21    2
     6    17    18   ar
     7    17    23    1
     8    18    19   ar
     9    18    22    2
    10    19    20   ar
    11     6     7    1
    12     6    11    1
    13     7     8    1
    14     7     9    1
    15     8    13    1
    16     9    10    1
    17     9    12    1
    18    10    11    1
    19    10     5    1
    20    12    14    1
    21     5     4    1
    22     4     1    1
    23     1     2    2
    24     1     3    1
    25     1    24    1
    26    24    25    1
    27    25    26    2
    28    25    27    1
    29    25    28    1
    30    28    29    1
    31    29    30    1
    32    29    37    1
    33    30    31    1
    34    30    34    1
    35    31    32    1
    36    31    35    1
    37    32    33    1
    38    32    36    1
    39    33    41    1
    40    33    37    1
    41    41    42    1
    42    34    38    1
    43    35    39    1
    44    36    40    1
    45    42    43    1
@<TRIPOS>MOLECULE
GDU
 43 45 0 0 0
SMALL
GASTEIGER

@<TRIPOS>ATOM
      1 P          21.3345   71.2495    0.1867 P.3     1  UNL1        0.2189
      2 O          21.6302   70.2056    1.1927 O.2     1  UNL1       -0.5170
      3 O          20.5209   72.4515    0.8839 O.3     1  UNL1       -0.4371
      4 O          22.7120   71.8155   -0.4208 O.3     1  UNL1       -0.3112
      5 C          23.6689   71.8008    0.6397 C.3     1  UNL1        0.1811
      6 C          24.9188   74.3105    2.8905 C.3     1  UNL1        0.2383
      7 C          25.3475   74.8011    1.4839 C.3     1  UNL1        0.1895
      8 O          25.3966   76.2288    1.4348 O.3     1  UNL1       -0.3779
      9 C          24.2053   74.2558    0.5876 C.3     1  UNL1        0.1713
     10 C          23.5896   73.1149    1.4188 C.3     1  UNL1        0.1764
     11 O          24.3504   73.0087    2.6345 O.3     1  UNL1       -0.3308
     12 O          23.2385   75.2770    0.3339 O.3     1  UNL1       -0.3794
     13 H          25.6685   76.4678    0.5378 H       1  UNL1        0.2106
     14 H          23.6974   75.9868   -0.1355 H       1  UNL1        0.2105
     15 N          26.0787   74.2017    3.7769 N.ar    1  UNL1       -0.2551
     16 C          27.0080   73.2575    3.5461 C.ar    1  UNL1        0.3323
     17 N          28.0857   73.1385    4.3438 N.ar    1  UNL1       -0.2743
     18 C          28.2459   73.9618    5.3977 C.ar    1  UNL1        0.2626
     19 C          27.2721   74.9573    5.6563 C.ar    1  UNL1        0.0795
     20 C          26.2031   75.0576    4.8380 C.ar    1  UNL1        0.0869
     21 O          26.8773   72.5079    2.5990 O.2     1  UNL1       -0.2464
     22 O          29.2187   73.8517    6.1231 O.2     1  UNL1       -0.2670
     23 H          28.7487   72.4541    4.1599 H       1  UNL1        0.1734
     24 O          20.4447   70.6165   -0.9966 O.3     1  UNL1       -0.2703
     25 P          20.6498   71.5549   -2.2878 P.3     1  UNL1        0.2208
     26 O          20.8828   72.9494   -1.8519 O.2     1  UNL1       -0.5170
     27 O          21.9209   71.0372   -3.1307 O.3     1  UNL1       -0.4371
     28 O          19.3336   71.4933   -3.2118 O.3     1  UNL1       -0.2858
     29 C          19.3268   70.2104   -3.8395 C.3     1  UNL1        0.2704
     30 C          19.1039   70.3804   -5.3431 C.3     1  UNL1        0.1967
     31 C          17.7716   71.1012   -5.5712 C.3     1  UNL1        0.1715
     32 C          16.6682   70.3375   -4.8304 C.3     1  UNL1        0.1694
     33 C          17.0754   70.1724   -3.3641 C.3     1  UNL1        0.1761
     34 O          20.1690   71.1524   -5.9006 O.3     1  UNL1       -0.3775
     35 O          17.4784   71.1369   -6.9695 O.3     1  UNL1       -0.3794
     36 O          16.4910   69.0531   -5.4296 O.3     1  UNL1       -0.3794
     37 O          18.2825   69.4160   -3.2820 O.3     1  UNL1       -0.3258
     38 H          20.9864   70.6657   -5.7278 H       1  UNL1        0.2106
     39 H          18.2018   71.6143   -7.3950 H       1  UNL1        0.2105
     40 H          16.2418   69.2058   -6.3504 H       1  UNL1        0.2105
     41 C          15.9645   69.4408   -2.6073 C.3     1  UNL1        0.1693
     42 O          16.5460   68.5304   -1.6723 O.3     1  UNL1       -0.3794
     43 H          15.8143   68.0915   -1.2170 H       1  UNL1        0.2105
@<TRIPOS>BOND
     1    15    16   ar
     2    15    20   ar
     3    15     6    1
     4    16    17   ar
     5    16    21    2
     6    17    18   ar
     7    17    23    1
     8    18    19   ar
     9    18    22    2
    10    19    20   ar
    11     6     7    1
    12     6    11    1
    13     7     8    1
    14     7     9    1
    15     8    13    1
    16     9    10    1
    17     9    12    1
    18    10    11    1
    19    10     5    1
    20    12    14    1
    21     5     4    1
    22     4     1    1
    23     1     2    2
    24     1     3    1
    25     1    24    1
    26    24    25    1
    27    25    26    2
    28    25    27    1
    29    25    28    1
    30    28    29    1
    31    29    30    1
    32    29    37    1
    33    30    31    1
    34    30    34    1
    35    31    32    1
    36    31    35    1
    37    32    33    1
    38    32    36    1
    39    33    41    1
    40    33    37    1
    41    41    42    1
    42    34    38    1
    43    35    39    1
    44    36    40    1
    45    42    43    1
@<TRIPOS>MOLECULE
GDU
 43 45 0 0 0
SMALL
GASTEIGER

@<TRIPOS>ATOM
      1 P          20.8538   71.2629   -0.9016 P.3     1  UNL1        0.2189
      2 O          20.5244   72.6212   -0.4158 O.2     1  UNL1       -0.5170
      3 O          19.5093   70.5309   -1.4009 O.3     1  UNL1       -0.4371
      4 O          21.8938   71.3673   -2.1241 O.3     1  UNL1       -0.3112
      5 C          21.3026   72.2292   -3.0978 C.3     1  UNL1        0.1811
      6 C          20.4001   71.2484   -6.4371 C.3     1  UNL1        0.2383
      7 C          20.8364   72.7298   -6.5712 C.3     1  UNL1        0.1895
      8 O          21.4087   72.9785   -7.8572 O.3     1  UNL1       -0.3779
      9 C          21.9067   72.8555   -5.4558 C.3     1  UNL1        0.1713
     10 C          21.5901   71.6901   -4.5002 C.3     1  UNL1        0.1764
     11 O          20.4271   71.0168   -5.0126 O.3     1  UNL1       -0.3308
     12 O          23.2189   72.7187   -6.0049 O.3     1  UNL1       -0.3794
     13 H          21.6575   73.9132   -7.8757 H       1  UNL1        0.2106
     14 H          23.3346   73.4409   -6.6371 H       1  UNL1        0.2105
     15 N          19.0484   71.0567   -6.9653 N.ar    1  UNL1       -0.2551
     16 C          18.8663   70.3361   -8.0859 C.ar    1  UNL1        0.3323
     17 N          17.6336   70.1418   -8.5904 N.ar    1  UNL1       -0.2743
     18 C          16.5578   70.6778   -7.9825 C.ar    1  UNL1        0.2626
     19 C          16.7350   71.4441   -6.8045 C.ar    1  UNL1        0.0795
     20 C          17.9818   71.6197   -6.3175 C.ar    1  UNL1        0.0869
     21 O          19.8271   69.8460   -8.6451 O.2     1  UNL1       -0.2464
     22 O          15.4421   70.5065   -8.4411 O.2     1  UNL1       -0.2670
     23 H          17.5203   69.6154   -9.3977 H       1  UNL1        0.1734
     24 O          21.5140   70.4116    0.2951 O.3     1  UNL1       -0.2703
     25 P          22.9772   71.0291    0.5550 P.3     1  UNL1        0.2208
     26 O          23.7484   70.1184    1.4297 O.2     1  UNL1       -0.5170
     27 O          23.7448   71.2000   -0.8506 O.3     1  UNL1       -0.4371
     28 O          22.8359   72.4659    1.2661 O.3     1  UNL1       -0.2858
     29 C          22.8609   72.2357    2.6754 C.3     1  UNL1        0.2704
     30 C          21.5810   72.7885    3.3044 C.3     1  UNL1        0.1967
     31 C          21.4843   74.2872    3.0028 C.3     1  UNL1        0.1715
     32 C          22.7812   74.9640    3.4608 C.3     1  UNL1        0.1694
     33 C          23.9708   74.2468    2.8179 C.3     1  UNL1        0.1761
     34 O          20.4477   72.1141    2.7549 O.3     1  UNL1       -0.3775
     35 O          20.3733   74.8477    3.7056 O.3     1  UNL1       -0.3794
     36 O          22.8832   74.8878    4.8834 O.3     1  UNL1       -0.3794
     37 O          23.9975   72.8844    3.2410 O.3     1  UNL1       -0.3258
     38 H          20.5542   71.1756    2.9618 H       1  UNL1        0.2106
     39 H          19.5841   74.3856    3.3957 H       1  UNL1        0.2105
     40 H          22.1129   75.3458    5.2442 H       1  UNL1        0.2105
     41 C          25.2696   74.9363    3.2417 C.3     1  UNL1        0.1693
     42 O          25.7926   74.2918    4.4045 O.3     1  UNL1       -0.3794
     43 H          26.6090   74.7548    4.6378 H       1  UNL1        0.2105
@<TRIPOS>BOND
     1    15    16   ar
     2    15    20   ar
     3    15     6    1
     4    16    17   ar
     5    16    21    2
     6    17    18   ar
     7    17    23    1
     8    18    19   ar
     9    18    22    2
    10    19    20   ar
    11     6     7    1
    12     6    11    1
    13     7     8    1
    14     7     9    1
    15     8    13    1
    16     9    10    1
    17     9    12    1
    18    10    11    1
    19    10     5    1
    20    12    14    1
    21     5     4    1
    22     4     1    1
    23     1     2    2
    24     1     3    1
    25     1    24    1
    26    24    25    1
    27    25    26    2
    28    25    27    1
    29    25    28    1
    30    28    29    1
    31    29    30    1
    32    29    37    1
    33    30    31    1
    34    30    34    1
    35    31    32    1
    36    31    35    1
    37    32    33    1
    38    32    36    1
    39    33    41    1
    40    33    37    1
    41    41    42    1
    42    34    38    1
    43    35    39    1
    44    36    40    1
    45    42    43    1
@<TRIPOS>MOLECULE
GDU
 43 45 0 0 0
SMALL
GASTEIGER

@<TRIPOS>ATOM
      1 P          20.9285   71.3693   -2.0235 P.3     1  UNL1        0.2189
      2 O          20.7147   70.7113   -0.7156 O.2     1  UNL1       -0.5170
      3 O          21.7497   70.3807   -2.9937 O.3     1  UNL1       -0.4371
      4 O          19.5060   71.7154   -2.6896 O.3     1  UNL1       -0.3112
      5 C          18.6439   70.6080   -2.4229 C.3     1  UNL1        0.1811
      6 C          17.0069   70.4954   -5.6221 C.3     1  UNL1        0.2383
      7 C          16.9291   69.0402   -5.0938 C.3     1  UNL1        0.1895
      8 O          15.7521   68.3859   -5.5732 O.3     1  UNL1       -0.3779
      9 C          16.8564   69.2550   -3.5595 C.3     1  UNL1        0.1713
     10 C          17.4302   70.6690   -3.3521 C.3     1  UNL1        0.1764
     11 O          17.8269   71.1663   -4.6418 O.3     1  UNL1       -0.3308
     12 O          15.5021   69.1864   -3.1091 O.3     1  UNL1       -0.3794
     13 H          15.7641   67.4892   -5.2104 H       1  UNL1        0.2106
     14 H          15.1815   68.2989   -3.3196 H       1  UNL1        0.2105
     15 N          17.6427   70.5346   -6.9401 N.ar    1  UNL1       -0.2551
     16 C          16.8841   70.4692   -8.0486 C.ar    1  UNL1        0.3323
     17 N          17.4433   70.5068   -9.2724 N.ar    1  UNL1       -0.2743
     18 C          18.7803   70.6011   -9.4065 C.ar    1  UNL1        0.2626
     19 C          19.5922   70.6650   -8.2477 C.ar    1  UNL1        0.0795
     20 C          19.0052   70.6296   -7.0325 C.ar    1  UNL1        0.0869
     21 O          15.6767   70.3844   -7.9434 O.2     1  UNL1       -0.2464
     22 O          19.2877   70.6304  -10.5138 O.2     1  UNL1       -0.2670
     23 H          16.8803   70.4629  -10.0616 H       1  UNL1        0.1734
     24 O          21.7668   72.7272   -1.8094 O.3     1  UNL1       -0.2703
     25 P          21.1856   73.4302   -0.4834 P.3     1  UNL1        0.2208
     26 O          21.3115   74.8991   -0.6086 O.2     1  UNL1       -0.5170
     27 O          19.6335   73.0384   -0.3050 O.3     1  UNL1       -0.4371
     28 O          22.0158   72.9268    0.8000 O.3     1  UNL1       -0.2858
     29 C          23.3964   73.1612    0.5192 C.3     1  UNL1        0.2704
     30 C          24.1866   71.8698    0.7364 C.3     1  UNL1        0.1967
     31 C          24.0000   71.4088    2.1853 C.3     1  UNL1        0.1715
     32 C          24.3718   72.5659    3.1194 C.3     1  UNL1        0.1694
     33 C          23.5654   73.8049    2.7223 C.3     1  UNL1        0.1761
     34 O          23.7079   70.8603   -0.1540 O.3     1  UNL1       -0.3775
     35 O          24.8472   70.2876    2.4452 O.3     1  UNL1       -0.3794
     36 O          25.7684   72.8422    3.0054 O.3     1  UNL1       -0.3794
     37 O          23.8890   74.1815    1.3846 O.3     1  UNL1       -0.3258
     38 H          23.8381   71.1954   -1.0516 H       1  UNL1        0.2106
     39 H          24.5866   69.5912    1.8293 H       1  UNL1        0.2105
     40 H          26.2350   72.0351    3.2588 H       1  UNL1        0.2105
     41 C          23.9038   74.9572    3.6709 C.3     1  UNL1        0.1693
     42 O          24.2968   74.4294    4.9390 O.3     1  UNL1       -0.3794
     43 H          24.5017   75.1858    5.5056 H       1  UNL1        0.2105
@<TRIPOS>BOND
     1    15    16   ar
     2    15    20   ar
     3    15     6    1
     4    16    17   ar
     5    16    21    2
     6    17    18   ar
     7    17    23    1
     8    18    19   ar
     9    18    22    2
    10    19    20   ar
    11     6     7    1
    12     6    11    1
    13     7     8    1
    14     7     9    1
    15     8    13    1
    16     9    10    1
    17     9    12    1
    18    10    11    1
    19    10     5    1
    20    12    14    1
    21     5     4    1
    22     4     1    1
    23     1     2    2
    24     1     3    1
    25     1    24    1
    26    24    25    1
    27    25    26    2
    28    25    27    1
    29    25    28    1
    30    28    29    1
    31    29    30    1
    32    29    37    1
    33    30    31    1
    34    30    34    1
    35    31    32    1
    36    31    35    1
    37    32    33    1
    38    32    36    1
    39    33    41    1
    40    33    37    1
    41    41    42    1
    42    34    38    1
    43    35    39    1
    44    36    40    1
    45    42    43    1
@<TRIPOS>MOLECULE
GDU
 43 45 0 0 0
SMALL
GASTEIGER

@<TRIPOS>ATOM
      1 P          23.5644   72.2140   -3.3842 P.3     1  UNL1        0.2189
      2 O          24.3050   72.9660   -4.4213 O.2     1  UNL1       -0.5170
      3 O          24.3246   70.8271   -3.0814 O.3     1  UNL1       -0.4371
      4 O          23.4885   73.0896   -2.0372 O.3     1  UNL1       -0.3112
      5 C          22.3972   72.5768   -1.2714 C.3     1  UNL1        0.1811
      6 C          24.3004   71.7211    1.6565 C.3     1  UNL1        0.2383
      7 C          22.8821   72.0410    2.1942 C.3     1  UNL1        0.1895
      8 O          22.5941   71.2706    3.3633 O.3     1  UNL1       -0.3779
      9 C          21.9801   71.6069    1.0096 C.3     1  UNL1        0.1713
     10 C          22.9269   71.6166   -0.2049 C.3     1  UNL1        0.1764
     11 O          24.2145   72.0610    0.2563 O.3     1  UNL1       -0.3308
     12 O          21.4570   70.2962    1.2342 O.3     1  UNL1       -0.3794
     13 H          21.7021   71.5158    3.6461 H       1  UNL1        0.2106
     14 H          20.9225   70.3420    2.0385 H       1  UNL1        0.2105
     15 N          25.3067   72.5463    2.3268 N.ar    1  UNL1       -0.2551
     16 C          26.4925   72.0093    2.6641 C.ar    1  UNL1        0.3323
     17 N          27.4363   72.7471    3.2779 N.ar    1  UNL1       -0.2743
     18 C          27.2024   74.0400    3.5744 C.ar    1  UNL1        0.2626
     19 C          25.9557   74.6176    3.2303 C.ar    1  UNL1        0.0795
     20 C          25.0285   73.8562    2.6114 C.ar    1  UNL1        0.0869
     21 O          26.7181   70.8444    2.4026 O.2     1  UNL1       -0.2464
     22 O          28.0543   74.7074    4.1343 O.2     1  UNL1       -0.2670
     23 H          28.2881   72.3444    3.5102 H       1  UNL1        0.1734
     24 O          22.0741   71.9039   -3.9090 O.3     1  UNL1       -0.2703
     25 P          21.8620   72.7690   -5.2494 P.3     1  UNL1        0.2208
     26 O          22.0087   74.2076   -4.9361 O.2     1  UNL1       -0.5170
     27 O          22.9652   72.3432   -6.3428 O.3     1  UNL1       -0.4371
     28 O          20.3899   72.4946   -5.8391 O.3     1  UNL1       -0.2858
     29 C          20.3772   71.1474   -6.3130 C.3     1  UNL1        0.2704
     30 C          19.8794   71.1209   -7.7589 C.3     1  UNL1        0.1967
     31 C          18.4735   71.7266   -7.8133 C.3     1  UNL1        0.1715
     32 C          17.5841   70.9923   -6.8036 C.3     1  UNL1        0.1694
     33 C          18.2557   71.0303   -5.4287 C.3     1  UNL1        0.1761
     34 O          20.7628   71.8831   -8.5833 O.3     1  UNL1       -0.3775
     35 O          17.9362   71.5755   -9.1290 O.3     1  UNL1       -0.3794
     36 O          17.4094   69.6367   -7.2180 O.3     1  UNL1       -0.3794
     37 O          19.5160   70.3641   -5.4900 O.3     1  UNL1       -0.3258
     38 H          21.6348   71.4714   -8.5131 H       1  UNL1        0.2106
     39 H          18.5318   72.0411   -9.7296 H       1  UNL1        0.2105
     40 H          16.9900   69.6618   -8.0880 H       1  UNL1        0.2105
     41 C          17.3593   70.3293   -4.4055 C.3     1  UNL1        0.1693
     42 O          15.9890   70.5412   -4.7497 O.3     1  UNL1       -0.3794
     43 H          15.4589   70.0839   -4.0825 H       1  UNL1        0.2105
@<TRIPOS>BOND
     1    15    16   ar
     2    15    20   ar
     3    15     6    1
     4    16    17   ar
     5    16    21    2
     6    17    18   ar
     7    17    23    1
     8    18    19   ar
     9    18    22    2
    10    19    20   ar
    11     6     7    1
    12     6    11    1
    13     7     8    1
    14     7     9    1
    15     8    13    1
    16     9    10    1
    17     9    12    1
    18    10    11    1
    19    10     5    1
    20    12    14    1
    21     5     4    1
    22     4     1    1
    23     1     2    2
    24     1     3    1
    25     1    24    1
    26    24    25    1
    27    25    26    2
    28    25    27    1
    29    25    28    1
    30    28    29    1
    31    29    30    1
    32    29    37    1
    33    30    31    1
    34    30    34    1
    35    31    32    1
    36    31    35    1
    37    32    33    1
    38    32    36    1
    39    33    41    1
    40    33    37    1
    41    41    42    1
    42    34    38    1
    43    35    39    1
    44    36    40    1
    45    42    43    1
@<TRIPOS>MOLECULE
GDU
 43 45 0 0 0
SMALL
GASTEIGER

@<TRIPOS>ATOM
      1 P          15.9025   70.9300   -2.2136 P.3     1  UNL1        0.2189
      2 O          15.6022   71.5772   -3.5099 O.2     1  UNL1       -0.5170
      3 O          15.6610   71.9830   -1.0195 O.3     1  UNL1       -0.4371
      4 O          14.9379   69.6590   -2.0116 O.3     1  UNL1       -0.3112
      5 C          14.4516   69.7177   -0.6697 C.3     1  UNL1        0.1811
      6 C          12.7708   67.3961    1.5009 C.3     1  UNL1        0.2383
      7 C          11.6651   68.3909    1.0643 C.3     1  UNL1        0.1895
      8 O          10.3898   67.7470    1.0162 O.3     1  UNL1       -0.3779
      9 C          12.1346   68.7949   -0.3575 C.3     1  UNL1        0.1713
     10 C          13.6375   68.4590   -0.3649 C.3     1  UNL1        0.1764
     11 O          13.9746   67.9640    0.9426 O.3     1  UNL1       -0.3308
     12 O          11.4402   68.0341   -1.3480 O.3     1  UNL1       -0.3794
     13 H           9.7493   68.4172    0.7397 H       1  UNL1        0.2106
     14 H          10.5009   68.2429   -1.2539 H       1  UNL1        0.2105
     15 N          12.8606   67.3295    2.9605 N.ar    1  UNL1       -0.2551
     16 C          12.5746   68.4180    3.6965 C.ar    1  UNL1        0.3323
     17 N          12.6460   68.3824    5.0402 N.ar    1  UNL1       -0.2743
     18 C          13.0170   67.2521    5.6718 C.ar    1  UNL1        0.2626
     19 C          13.3268   66.0994    4.9091 C.ar    1  UNL1        0.0795
     20 C          13.2429   66.1613    3.5632 C.ar    1  UNL1        0.0869
     21 O          12.2380   69.4447    3.1410 O.2     1  UNL1       -0.2464
     22 O          13.0865   67.2203    6.8878 O.2     1  UNL1       -0.2670
     23 H          12.4319   69.1762    5.5558 H       1  UNL1        0.1734
     24 O          17.4385   70.4473   -2.1990 O.3     1  UNL1       -0.2703
     25 P          17.7097   69.7114   -3.6043 P.3     1  UNL1        0.2208
     26 O          18.8356   68.7631   -3.4551 O.2     1  UNL1       -0.5170
     27 O          16.3879   68.9080   -4.0530 O.3     1  UNL1       -0.4371
     28 O          18.0755   70.8082   -4.7239 O.3     1  UNL1       -0.2858
     29 C          19.1410   70.2650   -5.5045 C.3     1  UNL1        0.2704
     30 C          20.3719   71.1645   -5.3818 C.3     1  UNL1        0.1967
     31 C          20.0107   72.5725   -5.8652 C.3     1  UNL1        0.1715
     32 C          19.4159   72.4693   -7.2742 C.3     1  UNL1        0.1694
     33 C          18.2553   71.4715   -7.2527 C.3     1  UNL1        0.1761
     34 O          20.7914   71.2183   -4.0172 O.3     1  UNL1       -0.3775
     35 O          21.1854   73.3858   -5.8957 O.3     1  UNL1       -0.3794
     36 O          20.4206   72.0216   -8.1853 O.3     1  UNL1       -0.3794
     37 O          18.7348   70.1837   -6.8687 O.3     1  UNL1       -0.3258
     38 H          21.0012   70.3119   -3.7539 H       1  UNL1        0.2106
     39 H          21.5308   73.4126   -4.9944 H       1  UNL1        0.2105
     40 H          21.1315   72.6753   -8.1614 H       1  UNL1        0.2105
     41 C          17.6321   71.3867   -8.6478 C.3     1  UNL1        0.1693
     42 O          16.4201   70.6333   -8.5821 O.3     1  UNL1       -0.3794
     43 H          16.0596   70.6042   -9.4791 H       1  UNL1        0.2105
@<TRIPOS>BOND
     1    15    16   ar
     2    15    20   ar
     3    15     6    1
     4    16    17   ar
     5    16    21    2
     6    17    18   ar
     7    17    23    1
     8    18    19   ar
     9    18    22    2
    10    19    20   ar
    11     6     7    1
    12     6    11    1
    13     7     8    1
    14     7     9    1
    15     8    13    1
    16     9    10    1
    17     9    12    1
    18    10    11    1
    19    10     5    1
    20    12    14    1
    21     5     4    1
    22     4     1    1
    23     1     2    2
    24     1     3    1
    25     1    24    1
    26    24    25    1
    27    25    26    2
    28    25    27    1
    29    25    28    1
    30    28    29    1
    31    29    30    1
    32    29    37    1
    33    30    31    1
    34    30    34    1
    35    31    32    1
    36    31    35    1
    37    32    33    1
    38    32    36    1
    39    33    41    1
    40    33    37    1
    41    41    42    1
    42    34    38    1
    43    35    39    1
    44    36    40    1
    45    42    43    1
@<TRIPOS>MOLECULE
GDU
 43 45 0 0 0
SMALL
GASTEIGER

@<TRIPOS>ATOM
      1 P          23.8528   74.4772   -2.6311 P.3     1  UNL1        0.2189
      2 O          23.7877   75.9508   -2.5134 O.2     1  UNL1       -0.5170
      3 O          25.0654   74.0701   -3.6092 O.3     1  UNL1       -0.4371
      4 O          24.0960   73.8327   -1.1777 O.3     1  UNL1       -0.3112
      5 C          22.9709   72.9969   -0.9021 C.3     1  UNL1        0.1811
      6 C          24.7020   71.8595    2.0368 C.3     1  UNL1        0.2383
      7 C          23.3358   72.3693    2.5627 C.3     1  UNL1        0.1895
      8 O          22.9297   71.6365    3.7209 O.3     1  UNL1       -0.3779
      9 C          22.3961   72.0751    1.3645 C.3     1  UNL1        0.1713
     10 C          23.3492   71.9631    0.1601 C.3     1  UNL1        0.1764
     11 O          24.6807   72.2200    0.6392 O.3     1  UNL1       -0.3308
     12 O          21.6931   70.8482    1.5704 O.3     1  UNL1       -0.3794
     13 H          22.0772   72.0011    3.9969 H       1  UNL1        0.2106
     14 H          21.1607   70.9611    2.3695 H       1  UNL1        0.2105
     15 N          25.8054   72.5308    2.7258 N.ar    1  UNL1       -0.2551
     16 C          26.9896   71.9067    2.8542 C.ar    1  UNL1        0.3323
     17 N          28.0212   72.5032    3.4801 N.ar    1  UNL1       -0.2743
     18 C          27.8796   73.7379    3.9994 C.ar    1  UNL1        0.2626
     19 C          26.6362   74.4050    3.8767 C.ar    1  UNL1        0.0795
     20 C          25.6193   73.7857    3.2404 C.ar    1  UNL1        0.0869
     21 O          27.1325   70.7929    2.3905 O.2     1  UNL1       -0.2464
     22 O          28.8114   74.2766    4.5703 O.2     1  UNL1       -0.2670
     23 H          28.8701   72.0397    3.5599 H       1  UNL1        0.1734
     24 O          22.4671   73.9266   -3.2386 O.3     1  UNL1       -0.2703
     25 P          22.8492   72.9204   -4.4351 P.3     1  UNL1        0.2208
     26 O          23.1385   73.6982   -5.6600 O.2     1  UNL1       -0.5170
     27 O          24.1509   72.0663   -4.0225 O.3     1  UNL1       -0.4371
     28 O          21.6184   71.9209   -4.7110 O.3     1  UNL1       -0.2858
     29 C          20.5475   72.7136   -5.2254 C.3     1  UNL1        0.2704
     30 C          19.3286   72.5771   -4.3116 C.3     1  UNL1        0.1967
     31 C          18.9229   71.1018   -4.2386 C.3     1  UNL1        0.1715
     32 C          18.7308   70.5752   -5.6653 C.3     1  UNL1        0.1694
     33 C          19.9969   70.8620   -6.4764 C.3     1  UNL1        0.1761
     34 O          19.6554   73.0505   -3.0039 O.3     1  UNL1       -0.3775
     35 O          17.7005   70.9756   -3.5090 O.3     1  UNL1       -0.3794
     36 O          17.6128   71.2276   -6.2690 O.3     1  UNL1       -0.3794
     37 O          20.2192   72.2700   -6.5399 O.3     1  UNL1       -0.3258
     38 H          19.9110   73.9782   -3.0988 H       1  UNL1        0.2106
     39 H          17.8642   71.3286   -2.6254 H       1  UNL1        0.2105
     40 H          16.8420   71.0246   -5.7231 H       1  UNL1        0.2105
     41 C          19.8287   70.3093   -7.8935 C.3     1  UNL1        0.1693
     42 O          20.8449   69.3381   -8.1488 O.3     1  UNL1       -0.3794
     43 H          20.7032   69.0149   -9.0492 H       1  UNL1        0.2105
@<TRIPOS>BOND
     1    15    16   ar
     2    15    20   ar
     3    15     6    1
     4    16    17   ar
     5    16    21    2
     6    17    18   ar
     7    17    23    1
     8    18    19   ar
     9    18    22    2
    10    19    20   ar
    11     6     7    1
    12     6    11    1
    13     7     8    1
    14     7     9    1
    15     8    13    1
    16     9    10    1
    17     9    12    1
    18    10    11    1
    19    10     5    1
    20    12    14    1
    21     5     4    1
    22     4     1    1
    23     1     2    2
    24     1     3    1
    25     1    24    1
    26    24    25    1
    27    25    26    2
    28    25    27    1
    29    25    28    1
    30    28    29    1
    31    29    30    1
    32    29    37    1
    33    30    31    1
    34    30    34    1
    35    31    32    1
    36    31    35    1
    37    32    33    1
    38    32    36    1
    39    33    41    1
    40    33    37    1
    41    41    42    1
    42    34    38    1
    43    35    39    1
    44    36    40    1
    45    42    43    1
@<TRIPOS>MOLECULE
GDU
 43 45 0 0 0
SMALL
GASTEIGER

@<TRIPOS>ATOM
      1 P          22.1517   72.8735   -5.0588 P.3     1  UNL1        0.2189
      2 O          23.3467   72.6026   -5.8883 O.2     1  UNL1       -0.5170
      3 O          22.2126   74.3854   -4.5077 O.3     1  UNL1       -0.4371
      4 O          20.8255   72.6795   -5.9479 O.3     1  UNL1       -0.3112
      5 C          21.1521   71.7475   -6.9800 C.3     1  UNL1        0.1811
      6 C          18.0110   70.2268   -6.1151 C.3     1  UNL1        0.2383
      7 C          17.7372   70.9473   -7.4600 C.3     1  UNL1        0.1895
      8 O          16.7386   70.2567   -8.2145 O.3     1  UNL1       -0.3779
      9 C          19.1178   70.8619   -8.1613 C.3     1  UNL1        0.1713
     10 C          20.1100   70.6279   -7.0070 C.3     1  UNL1        0.1764
     11 O          19.3555   70.6333   -5.7827 O.3     1  UNL1       -0.3308
     12 O          19.1440   69.7692   -9.0817 O.3     1  UNL1       -0.3794
     13 H          16.6156   70.7539   -9.0351 H       1  UNL1        0.2106
     14 H          18.4628   69.9452   -9.7448 H       1  UNL1        0.2105
     15 N          17.0685   70.6725   -5.0875 N.ar    1  UNL1       -0.2551
     16 C          16.4717   69.7671   -4.2922 C.ar    1  UNL1        0.3323
     17 N          15.6039   70.1508   -3.3374 N.ar    1  UNL1       -0.2743
     18 C          15.3106   71.4546   -3.1692 C.ar    1  UNL1        0.2626
     19 C          15.9273   72.4189   -4.0034 C.ar    1  UNL1        0.0795
     20 C          16.7970   72.0073   -4.9503 C.ar    1  UNL1        0.0869
     21 O          16.7267   68.5875   -4.4318 O.2     1  UNL1       -0.2464
     22 O          14.5216   71.8024   -2.3084 O.2     1  UNL1       -0.2670
     23 H          15.1857   69.4841   -2.7696 H       1  UNL1        0.1734
     24 O          22.1199   71.8514   -3.8151 O.3     1  UNL1       -0.2703
     25 P          23.5325   71.9942   -3.0575 P.3     1  UNL1        0.2208
     26 O          24.2698   70.7144   -3.1437 O.2     1  UNL1       -0.5170
     27 O          24.3990   73.1600   -3.7534 O.3     1  UNL1       -0.4371
     28 O          23.2788   72.3655   -1.5122 O.3     1  UNL1       -0.2858
     29 C          23.1538   71.1316   -0.8041 C.3     1  UNL1        0.2704
     30 C          21.7803   71.0658   -0.1344 C.3     1  UNL1        0.1967
     31 C          21.6336   72.2546    0.8204 C.3     1  UNL1        0.1715
     32 C          22.8281   72.2617    1.7811 C.3     1  UNL1        0.1694
     33 C          24.1231   72.2388    0.9654 C.3     1  UNL1        0.1761
     34 O          20.7585   71.1219   -1.1314 O.3     1  UNL1       -0.3775
     35 O          20.4186   72.1277    1.5621 O.3     1  UNL1       -0.3794
     36 O          22.7691   71.1112    2.6254 O.3     1  UNL1       -0.3794
     37 O          24.1784   71.0465    0.1835 O.3     1  UNL1       -0.3258
     38 H          20.8937   70.3611   -1.7125 H       1  UNL1        0.2106
     39 H          19.6983   72.1155    0.9193 H       1  UNL1        0.2105
     40 H          21.9373   71.1648    3.1139 H       1  UNL1        0.2105
     41 C          25.3227   72.2803    1.9148 C.3     1  UNL1        0.1693
     42 O          25.7101   70.9467    2.2500 O.3     1  UNL1       -0.3794
     43 H          26.4674   71.0171    2.8474 H       1  UNL1        0.2105
@<TRIPOS>BOND
     1    15    16   ar
     2    15    20   ar
     3    15     6    1
     4    16    17   ar
     5    16    21    2
     6    17    18   ar
     7    17    23    1
     8    18    19   ar
     9    18    22    2
    10    19    20   ar
    11     6     7    1
    12     6    11    1
    13     7     8    1
    14     7     9    1
    15     8    13    1
    16     9    10    1
    17     9    12    1
    18    10    11    1
    19    10     5    1
    20    12    14    1
    21     5     4    1
    22     4     1    1
    23     1     2    2
    24     1     3    1
    25     1    24    1
    26    24    25    1
    27    25    26    2
    28    25    27    1
    29    25    28    1
    30    28    29    1
    31    29    30    1
    32    29    37    1
    33    30    31    1
    34    30    34    1
    35    31    32    1
    36    31    35    1
    37    32    33    1
    38    32    36    1
    39    33    41    1
    40    33    37    1
    41    41    42    1
    42    34    38    1
    43    35    39    1
    44    36    40    1
    45    42    43    1
@<TRIPOS>MOLECULE
GDU
 43 45 0 0 0
SMALL
GASTEIGER

@<TRIPOS>ATOM
      1 P          22.5949   71.7013   -2.8770 P.3     1  UNL1        0.2189
      2 O          22.1244   73.1024   -2.8043 O.2     1  UNL1       -0.5170
      3 O          23.9750   71.6411   -3.7044 O.3     1  UNL1       -0.4371
      4 O          22.8357   71.1378   -1.3900 O.3     1  UNL1       -0.3112
      5 C          21.5459   70.9087   -0.8204 C.3     1  UNL1        0.1811
      6 C          23.1715   71.8283    2.2518 C.3     1  UNL1        0.2383
      7 C          22.5415   73.1470    1.7351 C.3     1  UNL1        0.1895
      8 O          22.1767   73.9986    2.8236 O.3     1  UNL1       -0.3779
      9 C          21.2829   72.6347    0.9877 C.3     1  UNL1        0.1713
     10 C          21.6008   71.1581    0.6879 C.3     1  UNL1        0.1764
     11 O          22.9267   70.8947    1.1785 O.3     1  UNL1       -0.3308
     12 O          20.1274   72.7455    1.8210 O.3     1  UNL1       -0.3794
     13 H          21.7931   74.7977    2.4360 H       1  UNL1        0.2106
     14 H          20.0157   73.6846    2.0216 H       1  UNL1        0.2105
     15 N          24.6089   71.9933    2.4742 N.ar    1  UNL1       -0.2551
     16 C          25.4057   70.9108    2.5165 C.ar    1  UNL1        0.3323
     17 N          26.7311   71.0352    2.7160 N.ar    1  UNL1       -0.2743
     18 C          27.2817   72.2525    2.8872 C.ar    1  UNL1        0.2626
     19 C          26.4538   73.4012    2.8508 C.ar    1  UNL1        0.0795
     20 C          25.1284   73.2483    2.6449 C.ar    1  UNL1        0.0869
     21 O          24.9235   69.8063    2.3633 O.2     1  UNL1       -0.2464
     22 O          28.4806   72.3657    3.0726 O.2     1  UNL1       -0.2670
     23 H          27.2918   70.2435    2.7393 H       1  UNL1        0.1734
     24 O          21.4856   70.8016   -3.6202 O.3     1  UNL1       -0.2703
     25 P          20.8838   71.6957   -4.8154 P.3     1  UNL1        0.2208
     26 O          20.1760   72.8646   -4.2484 O.2     1  UNL1       -0.5170
     27 O          22.0839   72.2031   -5.7623 O.3     1  UNL1       -0.4371
     28 O          19.8549   70.8124   -5.6821 O.3     1  UNL1       -0.2858
     29 C          18.9109   71.7183   -6.2550 C.3     1  UNL1        0.2704
     30 C          17.4970   71.3126   -5.8361 C.3     1  UNL1        0.1967
     31 C          17.2284   69.8806   -6.3092 C.3     1  UNL1        0.1715
     32 C          17.5113   69.8004   -7.8136 C.3     1  UNL1        0.1694
     33 C          18.9260   70.3193   -8.0824 C.3     1  UNL1        0.1761
     34 O          17.3820   71.3777   -4.4136 O.3     1  UNL1       -0.3775
     35 O          15.8639   69.5393   -6.0560 O.3     1  UNL1       -0.3794
     36 O          16.5618   70.5986   -8.5216 O.3     1  UNL1       -0.3794
     37 O          19.0236   71.6835   -7.6758 O.3     1  UNL1       -0.3258
     38 H          17.5657   72.2927   -4.1605 H       1  UNL1        0.2106
     39 H          15.7287   69.6148   -5.1029 H       1  UNL1        0.2105
     40 H          15.6880   70.2400   -8.3186 H       1  UNL1        0.2105
     41 C          19.2314   70.2115   -9.5781 C.3     1  UNL1        0.1693
     42 O          18.6206   71.3033  -10.2680 O.3     1  UNL1       -0.3794
     43 H          18.8371   71.1987  -11.2047 H       1  UNL1        0.2105
@<TRIPOS>BOND
     1    15    16   ar
     2    15    20   ar
     3    15     6    1
     4    16    17   ar
     5    16    21    2
     6    17    18   ar
     7    17    23    1
     8    18    19   ar
     9    18    22    2
    10    19    20   ar
    11     6     7    1
    12     6    11    1
    13     7     8    1
    14     7     9    1
    15     8    13    1
    16     9    10    1
    17     9    12    1
    18    10    11    1
    19    10     5    1
    20    12    14    1
    21     5     4    1
    22     4     1    1
    23     1     2    2
    24     1     3    1
    25     1    24    1
    26    24    25    1
    27    25    26    2
    28    25    27    1
    29    25    28    1
    30    28    29    1
    31    29    30    1
    32    29    37    1
    33    30    31    1
    34    30    34    1
    35    31    32    1
    36    31    35    1
    37    32    33    1
    38    32    36    1
    39    33    41    1
    40    33    37    1
    41    41    42    1
    42    34    38    1
    43    35    39    1
    44    36    40    1
    45    42    43    1
@<TRIPOS>MOLECULE
GDU
 43 45 0 0 0
SMALL
GASTEIGER

@<TRIPOS>ATOM
      1 P          22.6959   73.7575   -4.5959 P.3     1  UNL1        0.2189
      2 O          23.3241   74.8200   -5.4119 O.2     1  UNL1       -0.5170
      3 O          23.5642   72.4065   -4.7138 O.3     1  UNL1       -0.4371
      4 O          22.6373   74.2252   -3.0582 O.3     1  UNL1       -0.3112
      5 C          21.5210   73.5595   -2.4655 C.3     1  UNL1        0.1811
      6 C          23.2550   71.5658   -0.0271 C.3     1  UNL1        0.2383
      7 C          21.8125   71.6903    0.5267 C.3     1  UNL1        0.1895
      8 O          21.4548   70.5311    1.2827 O.3     1  UNL1       -0.3779
      9 C          20.9723   71.7836   -0.7735 C.3     1  UNL1        0.1713
     10 C          21.9836   72.2421   -1.8405 C.3     1  UNL1        0.1764
     11 O          23.2482   72.4312   -1.1823 O.3     1  UNL1       -0.3308
     12 O          20.4262   70.5063   -1.1082 O.3     1  UNL1       -0.3794
     13 H          20.5509   70.6715    1.5976 H       1  UNL1        0.2106
     14 H          19.8493   70.2479   -0.3767 H       1  UNL1        0.2105
     15 N          24.2307   72.0310    0.9601 N.ar    1  UNL1       -0.2551
     16 C          24.8846   71.1378    1.7236 C.ar    1  UNL1        0.3323
     17 N          25.7891   71.5389    2.6361 N.ar    1  UNL1       -0.2743
     18 C          26.0477   72.8497    2.8066 C.ar    1  UNL1        0.2626
     19 C          25.3623   73.8023    2.0134 C.ar    1  UNL1        0.0795
     20 C          24.4633   73.3725    1.1027 C.ar    1  UNL1        0.0869
     21 O          24.6622   69.9519    1.5809 O.2     1  UNL1       -0.2464
     22 O          26.8629   73.2140    3.6356 O.2     1  UNL1       -0.2670
     23 H          26.2549   70.8802    3.1755 H       1  UNL1        0.1734
     24 O          21.2028   73.4826   -5.1319 O.3     1  UNL1       -0.2703
     25 P          21.2515   72.1054   -5.9632 P.3     1  UNL1        0.2208
     26 O          22.5114   72.0404   -6.7361 O.2     1  UNL1       -0.5170
     27 O          21.1834   70.8606   -4.9433 O.3     1  UNL1       -0.4371
     28 O          19.9985   72.0410   -6.9710 O.3     1  UNL1       -0.2858
     29 C          19.2841   70.8418   -6.6688 C.3     1  UNL1        0.2704
     30 C          19.0573   70.0463   -7.9553 C.3     1  UNL1        0.1967
     31 C          18.2689   70.9110   -8.9438 C.3     1  UNL1        0.1715
     32 C          16.9951   71.4089   -8.2516 C.3     1  UNL1        0.1694
     33 C          17.3788   72.1034   -6.9426 C.3     1  UNL1        0.1761
     34 O          20.3176   69.6914   -8.5270 O.3     1  UNL1       -0.3775
     35 O          17.9219   70.1332  -10.0914 O.3     1  UNL1       -0.3794
     36 O          16.1365   70.3011   -7.9766 O.3     1  UNL1       -0.3794
     37 O          18.0300   71.1740   -6.0776 O.3     1  UNL1       -0.3258
     38 H          20.7812   69.1553   -7.8693 H       1  UNL1        0.2106
     39 H          18.7500   69.8323  -10.4864 H       1  UNL1        0.2105
     40 H          15.9263   69.8922   -8.8262 H       1  UNL1        0.2105
     41 C          16.1164   72.6347   -6.2600 C.3     1  UNL1        0.1693
     42 O          15.6280   71.6590   -5.3377 O.3     1  UNL1       -0.3794
     43 H          14.8347   72.0321   -4.9295 H       1  UNL1        0.2105
@<TRIPOS>BOND
     1    15    16   ar
     2    15    20   ar
     3    15     6    1
     4    16    17   ar
     5    16    21    2
     6    17    18   ar
     7    17    23    1
     8    18    19   ar
     9    18    22    2
    10    19    20   ar
    11     6     7    1
    12     6    11    1
    13     7     8    1
    14     7     9    1
    15     8    13    1
    16     9    10    1
    17     9    12    1
    18    10    11    1
    19    10     5    1
    20    12    14    1
    21     5     4    1
    22     4     1    1
    23     1     2    2
    24     1     3    1
    25     1    24    1
    26    24    25    1
    27    25    26    2
    28    25    27    1
    29    25    28    1
    30    28    29    1
    31    29    30    1
    32    29    37    1
    33    30    31    1
    34    30    34    1
    35    31    32    1
    36    31    35    1
    37    32    33    1
    38    32    36    1
    39    33    41    1
    40    33    37    1
    41    41    42    1
    42    34    38    1
    43    35    39    1
    44    36    40    1
    45    42    43    1
