@<TRIPOS>MOLECULE
UD2
 46 48 0 0 0
SMALL
GASTEIGER

@<TRIPOS>ATOM
      1 P          22.0030   70.8028   -2.6688 P.3     1  UNL1        0.2189
      2 O          21.3258   69.3426   -2.6479 O.3     1  UNL1       -0.4371
      3 O          23.3072   70.7326   -3.3639 O.2     1  UNL1       -0.5170
      4 O          21.0363   71.8315   -3.4440 O.3     1  UNL1       -0.3112
      5 C          20.0342   72.6054   -2.7820 C.3     1  UNL1        0.1811
      6 C          17.8629   71.4419   -5.4028 C.3     1  UNL1        0.2383
      7 C          18.0222   70.2230   -4.4589 C.3     1  UNL1        0.1895
      8 O          16.8466   69.4109   -4.4716 O.3     1  UNL1       -0.3779
      9 C          18.2097   70.9018   -3.0799 C.3     1  UNL1        0.1713
     10 C          18.6717   72.3308   -3.4234 C.3     1  UNL1        0.1764
     11 O          18.7792   72.4136   -4.8535 O.3     1  UNL1       -0.3308
     12 O          16.9721   70.9336   -2.3671 O.3     1  UNL1       -0.3794
     13 H          16.8978   68.6353   -3.8968 H       1  UNL1        0.2106
     14 H          16.6049   70.0600   -2.1760 H       1  UNL1        0.2105
     15 N          18.2453   71.0878   -6.7715 N.ar    1  UNL1       -0.2551
     16 C          17.2994   70.7178   -7.6531 C.ar    1  UNL1        0.3323
     17 N          17.6222   70.3868   -8.9174 N.ar    1  UNL1       -0.2743
     18 C          18.9082   70.4238   -9.3214 C.ar    1  UNL1        0.2626
     19 C          19.9141   70.8124   -8.4042 C.ar    1  UNL1        0.0795
     20 C          19.5614   71.1430   -7.1441 C.ar    1  UNL1        0.0869
     21 O          16.1357   70.6802   -7.3028 O.2     1  UNL1       -0.2464
     22 O          19.2017   70.1249  -10.4656 O.2     1  UNL1       -0.2670
     23 H          16.9279   70.1211   -9.5399 H       1  UNL1        0.1734
     24 O          22.2266   71.3127   -1.1577 O.3     1  UNL1       -0.2703
     25 P          22.5672   70.5746    0.2323 P.3     1  UNL1        0.2208
     26 O          21.4420   69.4641    0.5394 O.3     1  UNL1       -0.4371
     27 O          23.8905   69.9208    0.1326 O.2     1  UNL1       -0.5170
     28 O          22.5918   71.6580    1.4232 O.3     1  UNL1       -0.2865
     29 C          21.7089   72.7802    1.4730 C.3     1  UNL1        0.2611
     30 C          22.4648   74.0443    1.0567 C.3     1  UNL1        0.1582
     31 C          23.6000   74.3011    2.0525 C.3     1  UNL1        0.1625
     32 C          23.0126   74.4138    3.4620 C.3     1  UNL1        0.1686
     33 C          22.2354   73.1350    3.7856 C.3     1  UNL1        0.1760
     34 O          24.2654   75.5200    1.7135 O.3     1  UNL1       -0.3801
     35 O          22.1320   75.5372    3.5241 O.3     1  UNL1       -0.3794
     36 O          21.2151   72.9385    2.8047 O.3     1  UNL1       -0.3263
     37 H          24.9979   75.7450    2.3035 H       1  UNL1        0.2105
     38 H          21.7221   75.6691    4.3904 H       1  UNL1        0.2105
     39 C          22.9218   74.8475   -1.1980 C.2     1  UNL1        0.2231
     40 C          23.4955   74.6600   -2.5780 C.3     1  UNL1        0.0946
     41 N          23.0228   73.8610   -0.2855 N.am    1  UNL1       -0.2994
     42 O          22.3682   75.8873   -0.9072 O.2     1  UNL1       -0.2751
     43 H          23.4645   73.0291   -0.5179 H       1  UNL1        0.1496
     44 C          21.5953   73.2640    5.1691 C.3     1  UNL1        0.1693
     45 O          22.6161   73.2617    6.1692 O.3     1  UNL1       -0.3794
     46 H          22.2821   73.3404    7.0732 H       1  UNL1        0.2105
@<TRIPOS>BOND
     1    29    30    1
     2    30    41    1
     3    30    31    1
     4    31    34    1
     5    31    32    1
     6    32    35    1
     7    32    33    1
     8    33    36    1
     9    33    44    1
    10    39    40    1
    11    39    42    2
    12    39    41   am
    13    41    43    1
    14    29    28    1
    15    34    37    1
    16    35    38    1
    17    29    36    1
    18    44    45    1
    19    45    46    1
    20    15     6    1
    21    15    16   ar
    22    16    21    2
    23    16    17   ar
    24    17    23    1
    25    17    18   ar
    26    18    19   ar
    27    19    20   ar
    28    15    20   ar
    29    18    22    2
    30     6     7    1
    31     6    11    1
    32     7     9    1
    33     7     8    1
    34     8    13    1
    35     9    10    1
    36     9    12    1
    37    10     5    1
    38    10    11    1
    39    12    14    1
    40     5     4    1
    41     4     1    1
    42     1     2    1
    43     1    24    1
    44     1     3    2
    45    24    25    1
    46    28    25    1
    47    25    26    1
    48    25    27    2
@<TRIPOS>MOLECULE
UD2
 46 48 0 0 0
SMALL
GASTEIGER

@<TRIPOS>ATOM
      1 P          22.8790   72.2784   -3.5148 P.3     1  UNL1        0.2189
      2 O          23.4816   70.8414   -3.1110 O.3     1  UNL1       -0.4371
      3 O          23.5609   72.7763   -4.7298 O.2     1  UNL1       -0.5170
      4 O          21.3012   72.1362   -3.8050 O.3     1  UNL1       -0.3112
      5 C          20.3245   72.0506   -2.7657 C.3     1  UNL1        0.1811
      6 C          17.9940   71.2710   -5.3920 C.3     1  UNL1        0.2383
      7 C          18.0517   69.9856   -4.5280 C.3     1  UNL1        0.1895
      8 O          16.8015   69.2944   -4.5578 O.3     1  UNL1       -0.3779
      9 C          18.3346   70.5550   -3.1162 C.3     1  UNL1        0.1713
     10 C          18.9284   71.9510   -3.3853 C.3     1  UNL1        0.1764
     11 O          19.0133   72.1124   -4.8101 O.3     1  UNL1       -0.3308
     12 O          17.1215   70.6625   -2.3694 O.3     1  UNL1       -0.3794
     13 H          16.7878   68.4829   -4.0325 H       1  UNL1        0.2106
     14 H          16.6738   69.8186   -2.2215 H       1  UNL1        0.2105
     15 N          18.3105   70.9679   -6.7895 N.ar    1  UNL1       -0.2551
     16 C          17.3148   70.7290   -7.6616 C.ar    1  UNL1        0.3323
     17 N          17.5765   70.4476   -8.9517 N.ar    1  UNL1       -0.2743
     18 C          18.8505   70.4029   -9.3917 C.ar    1  UNL1        0.2626
     19 C          19.9083   70.6533   -8.4849 C.ar    1  UNL1        0.0795
     20 C          19.6167   70.9370   -7.1980 C.ar    1  UNL1        0.0869
     21 O          16.1614   70.7662   -7.2788 O.2     1  UNL1       -0.2464
     22 O          19.0887   70.1487  -10.5593 O.2     1  UNL1       -0.2670
     23 H          16.8469   70.2767   -9.5669 H       1  UNL1        0.1734
     24 O          23.1101   73.3166   -2.3057 O.3     1  UNL1       -0.2703
     25 P          22.9927   74.9167   -2.1684 P.3     1  UNL1        0.2208
     26 O          24.0744   75.6185   -3.1333 O.3     1  UNL1       -0.4371
     27 O          21.6322   75.3471   -2.5583 O.2     1  UNL1       -0.5170
     28 O          23.2754   75.3465   -0.6426 O.3     1  UNL1       -0.2865
     29 C          24.3387   74.7961    0.1370 C.3     1  UNL1        0.2611
     30 C          23.9791   74.8783    1.6224 C.3     1  UNL1        0.1582
     31 C          23.8237   76.3493    2.0206 C.3     1  UNL1        0.1625
     32 C          25.1208   77.0949    1.6952 C.3     1  UNL1        0.1686
     33 C          25.4364   76.9272    0.2065 C.3     1  UNL1        0.1760
     34 O          23.5602   76.4389    3.4227 O.3     1  UNL1       -0.3801
     35 O          26.1901   76.5556    2.4743 O.3     1  UNL1       -0.3794
     36 O          25.5375   75.5360   -0.1036 O.3     1  UNL1       -0.3263
     37 H          23.4495   77.3440    3.7446 H       1  UNL1        0.2105
     38 H          27.0448   76.9812    2.3185 H       1  UNL1        0.2105
     39 C          22.5997   73.3426    2.9172 C.2     1  UNL1        0.2231
     40 C          21.3040   72.6150    3.1629 C.3     1  UNL1        0.0946
     41 N          22.7186   74.1707    1.8607 N.am    1  UNL1       -0.2994
     42 O          23.5373   73.1834    3.6706 O.2     1  UNL1       -0.2751
     43 H          21.9695   74.2976    1.2575 H       1  UNL1        0.1496
     44 C          26.7624   77.6193   -0.1146 C.3     1  UNL1        0.1693
     45 O          26.5558   79.0309   -0.1982 O.3     1  UNL1       -0.3794
     46 H          27.3561   79.5349   -0.3997 H       1  UNL1        0.2105
@<TRIPOS>BOND
     1    29    30    1
     2    30    41    1
     3    30    31    1
     4    31    34    1
     5    31    32    1
     6    32    35    1
     7    32    33    1
     8    33    36    1
     9    33    44    1
    10    39    40    1
    11    39    42    2
    12    39    41   am
    13    41    43    1
    14    29    28    1
    15    34    37    1
    16    35    38    1
    17    29    36    1
    18    44    45    1
    19    45    46    1
    20    15     6    1
    21    15    16   ar
    22    16    21    2
    23    16    17   ar
    24    17    23    1
    25    17    18   ar
    26    18    19   ar
    27    19    20   ar
    28    15    20   ar
    29    18    22    2
    30     6     7    1
    31     6    11    1
    32     7     9    1
    33     7     8    1
    34     8    13    1
    35     9    10    1
    36     9    12    1
    37    10     5    1
    38    10    11    1
    39    12    14    1
    40     5     4    1
    41     4     1    1
    42     1     2    1
    43     1    24    1
    44     1     3    2
    45    24    25    1
    46    28    25    1
    47    25    26    1
    48    25    27    2
@<TRIPOS>MOLECULE
UD2
 46 48 0 0 0
SMALL
GASTEIGER

@<TRIPOS>ATOM
      1 P          22.8949   72.0527   -3.3274 P.3     1  UNL1        0.2189
      2 O          23.4928   70.5589   -3.2799 O.3     1  UNL1       -0.4371
      3 O          23.5787   72.8250   -4.3880 O.2     1  UNL1       -0.5170
      4 O          21.3168   71.9892   -3.6424 O.3     1  UNL1       -0.3112
      5 C          20.3179   72.0422   -2.6222 C.3     1  UNL1        0.1811
      6 C          18.0125   71.3407   -5.2923 C.3     1  UNL1        0.2383
      7 C          18.0293   70.0453   -4.4416 C.3     1  UNL1        0.1895
      8 O          16.7652   69.3816   -4.4981 O.3     1  UNL1       -0.3779
      9 C          18.3021   70.5937   -3.0195 C.3     1  UNL1        0.1713
     10 C          18.9298   71.9792   -3.2642 C.3     1  UNL1        0.1764
     11 O          19.0404   72.1538   -4.6858 O.3     1  UNL1       -0.3308
     12 O          17.0802   70.7194   -2.2903 O.3     1  UNL1       -0.3794
     13 H          16.7259   68.5651   -3.9819 H       1  UNL1        0.2106
     14 H          16.6122   69.8839   -2.1584 H       1  UNL1        0.2105
     15 N          18.3442   71.0455   -6.6880 N.ar    1  UNL1       -0.2551
     16 C          17.3600   70.7777   -7.5646 C.ar    1  UNL1        0.3323
     17 N          17.6358   70.5029   -8.8532 N.ar    1  UNL1       -0.2743
     18 C          18.9126   70.4939   -9.2871 C.ar    1  UNL1        0.2626
     19 C          19.9585   70.7750   -8.3754 C.ar    1  UNL1        0.0795
     20 C          19.6527   71.0514   -7.0902 C.ar    1  UNL1        0.0869
     21 O          16.2041   70.7826   -7.1875 O.2     1  UNL1       -0.2464
     22 O          19.1636   70.2457  -10.4532 O.2     1  UNL1       -0.2670
     23 H          16.9143   70.3108   -9.4718 H       1  UNL1        0.1734
     24 O          23.1290   72.7702   -1.9048 O.3     1  UNL1       -0.2703
     25 P          23.2261   74.3058   -1.4299 P.3     1  UNL1        0.2208
     26 O          24.6739   74.8960   -1.8163 O.3     1  UNL1       -0.4371
     27 O          22.1749   75.0985   -2.1043 O.2     1  UNL1       -0.5170
     28 O          23.0208   74.3881    0.1650 O.3     1  UNL1       -0.2865
     29 C          21.7611   74.1626    0.8004 C.3     1  UNL1        0.2611
     30 C          21.8844   74.4543    2.2979 C.3     1  UNL1        0.1582
     31 C          22.8972   73.4857    2.9162 C.3     1  UNL1        0.1625
     32 C          22.4474   72.0484    2.6399 C.3     1  UNL1        0.1686
     33 C          22.3024   71.8495    1.1288 C.3     1  UNL1        0.1760
     34 O          22.9643   73.7021    4.3276 O.3     1  UNL1       -0.3801
     35 O          21.1904   71.8107    3.2762 O.3     1  UNL1       -0.3794
     36 O          21.3700   72.8011    0.6120 O.3     1  UNL1       -0.3263
     37 H          23.5885   73.1220    4.7848 H       1  UNL1        0.2105
     38 H          20.8437   70.9175    3.1423 H       1  UNL1        0.2105
     39 C          21.5810   76.7058    3.1789 C.2     1  UNL1        0.2231
     40 C          22.0520   78.1224    3.3790 C.3     1  UNL1        0.0946
     41 N          22.3431   75.8321    2.4919 N.am    1  UNL1       -0.2994
     42 O          20.5148   76.3505    3.6363 O.2     1  UNL1       -0.2751
     43 H          23.1951   76.1160    2.1252 H       1  UNL1        0.1496
     44 C          21.7957   70.4337    0.8474 C.3     1  UNL1        0.1693
     45 O          22.8844   69.5118    0.9314 O.3     1  UNL1       -0.3794
     46 H          22.6359   68.5925    0.7637 H       1  UNL1        0.2105
@<TRIPOS>BOND
     1    29    30    1
     2    30    41    1
     3    30    31    1
     4    31    34    1
     5    31    32    1
     6    32    35    1
     7    32    33    1
     8    33    36    1
     9    33    44    1
    10    39    40    1
    11    39    42    2
    12    39    41   am
    13    41    43    1
    14    29    28    1
    15    34    37    1
    16    35    38    1
    17    29    36    1
    18    44    45    1
    19    45    46    1
    20    15     6    1
    21    15    16   ar
    22    16    21    2
    23    16    17   ar
    24    17    23    1
    25    17    18   ar
    26    18    19   ar
    27    19    20   ar
    28    15    20   ar
    29    18    22    2
    30     6     7    1
    31     6    11    1
    32     7     9    1
    33     7     8    1
    34     8    13    1
    35     9    10    1
    36     9    12    1
    37    10     5    1
    38    10    11    1
    39    12    14    1
    40     5     4    1
    41     4     1    1
    42     1     2    1
    43     1    24    1
    44     1     3    2
    45    24    25    1
    46    28    25    1
    47    25    26    1
    48    25    27    2
@<TRIPOS>MOLECULE
UD2
 46 48 0 0 0
SMALL
GASTEIGER

@<TRIPOS>ATOM
      1 P          22.3947   72.7679   -4.3166 P.3     1  UNL1        0.2189
      2 O          21.0951   71.8404   -4.1115 O.3     1  UNL1       -0.4371
      3 O          23.5744   72.1043   -3.7192 O.2     1  UNL1       -0.5170
      4 O          22.6474   72.9968   -5.8906 O.3     1  UNL1       -0.3112
      5 C          22.6351   74.2891   -6.4998 C.3     1  UNL1        0.1811
      6 C          19.6809   73.3569   -8.3275 C.3     1  UNL1        0.2383
      7 C          19.3364   74.7345   -7.7064 C.3     1  UNL1        0.1895
      8 O          18.4291   75.4576   -8.5406 O.3     1  UNL1       -0.3779
      9 C          20.7203   75.4277   -7.6646 C.3     1  UNL1        0.1713
     10 C          21.7269   74.2632   -7.7316 C.3     1  UNL1        0.1764
     11 O          20.9688   73.0433   -7.7544 O.3     1  UNL1       -0.3308
     12 O          20.8794   76.2924   -8.7906 O.3     1  UNL1       -0.3794
     13 H          18.1829   76.3260   -8.1942 H       1  UNL1        0.2106
     14 H          20.2333   77.0102   -8.8306 H       1  UNL1        0.2105
     15 N          18.6860   72.3539   -7.9416 N.ar    1  UNL1       -0.2551
     16 C          18.3750   71.3613   -8.7942 C.ar    1  UNL1        0.3323
     17 N          17.4642   70.4259   -8.4659 N.ar    1  UNL1       -0.2743
     18 C          16.8474   70.4703   -7.2675 C.ar    1  UNL1        0.2626
     19 C          17.1658   71.5090   -6.3599 C.ar    1  UNL1        0.0795
     20 C          18.0859   72.4309   -6.7136 C.ar    1  UNL1        0.0869
     21 O          18.9234   71.3087   -9.8781 O.2     1  UNL1       -0.2464
     22 O          16.0231   69.6241   -6.9690 O.2     1  UNL1       -0.2670
     23 H          17.2508   69.7178   -9.0930 H       1  UNL1        0.1734
     24 O          22.1580   74.1901   -3.5993 O.3     1  UNL1       -0.2703
     25 P          21.2782   74.6747   -2.3408 P.3     1  UNL1        0.2208
     26 O          21.6269   76.2102   -2.0022 O.3     1  UNL1       -0.4371
     27 O          19.8406   74.5568   -2.6688 O.2     1  UNL1       -0.5170
     28 O          21.6152   73.7534   -1.0640 O.3     1  UNL1       -0.2865
     29 C          20.6066   73.1487   -0.2525 C.3     1  UNL1        0.2611
     30 C          20.4824   73.9168    1.0655 C.3     1  UNL1        0.1582
     31 C          21.8085   73.8255    1.8267 C.3     1  UNL1        0.1625
     32 C          22.1590   72.3511    2.0450 C.3     1  UNL1        0.1686
     33 C          22.2187   71.6431    0.6889 C.3     1  UNL1        0.1760
     34 O          21.6784   74.4778    3.0920 O.3     1  UNL1       -0.3801
     35 O          21.1589   71.7381    2.8608 O.3     1  UNL1       -0.3794
     36 O          20.9648   71.7923    0.0199 O.3     1  UNL1       -0.3263
     37 H          22.4829   74.4591    3.6282 H       1  UNL1        0.2105
     38 H          21.3167   70.8005    3.0398 H       1  UNL1        0.2105
     39 C          18.9980   75.8457    1.1843 C.2     1  UNL1        0.2231
     40 C          18.6803   77.2898    0.8975 C.3     1  UNL1        0.0946
     41 N          20.1740   75.3215    0.7860 N.am    1  UNL1       -0.2994
     42 O          18.1950   75.1533    1.7742 O.2     1  UNL1       -0.2751
     43 H          20.8158   75.8745    0.3135 H       1  UNL1        0.1496
     44 C          22.5096   70.1564    0.9023 C.3     1  UNL1        0.1693
     45 O          23.5888   69.7552    0.0557 O.3     1  UNL1       -0.3794
     46 H          23.8282   68.8219    0.1383 H       1  UNL1        0.2105
@<TRIPOS>BOND
     1    29    30    1
     2    30    41    1
     3    30    31    1
     4    31    34    1
     5    31    32    1
     6    32    35    1
     7    32    33    1
     8    33    36    1
     9    33    44    1
    10    39    40    1
    11    39    42    2
    12    39    41   am
    13    41    43    1
    14    29    28    1
    15    34    37    1
    16    35    38    1
    17    29    36    1
    18    44    45    1
    19    45    46    1
    20    15     6    1
    21    15    16   ar
    22    16    21    2
    23    16    17   ar
    24    17    23    1
    25    17    18   ar
    26    18    19   ar
    27    19    20   ar
    28    15    20   ar
    29    18    22    2
    30     6     7    1
    31     6    11    1
    32     7     9    1
    33     7     8    1
    34     8    13    1
    35     9    10    1
    36     9    12    1
    37    10     5    1
    38    10    11    1
    39    12    14    1
    40     5     4    1
    41     4     1    1
    42     1     2    1
    43     1    24    1
    44     1     3    2
    45    24    25    1
    46    28    25    1
    47    25    26    1
    48    25    27    2
@<TRIPOS>MOLECULE
UD2
 46 48 0 0 0
SMALL
GASTEIGER

@<TRIPOS>ATOM
      1 P          22.0583   73.9301   -6.3407 P.3     1  UNL1        0.2189
      2 O          22.7911   72.7702   -7.1827 O.3     1  UNL1       -0.4371
      3 O          22.8755   75.1627   -6.3832 O.2     1  UNL1       -0.5170
      4 O          20.6099   74.2240   -6.9806 O.3     1  UNL1       -0.3112
      5 C          20.3195   74.0340   -8.3666 C.3     1  UNL1        0.1811
      6 C          18.1575   71.4206   -7.1696 C.3     1  UNL1        0.2383
      7 C          17.3130   72.7140   -7.0421 C.3     1  UNL1        0.1895
      8 O          15.9224   72.4343   -7.2146 O.3     1  UNL1       -0.3779
      9 C          17.8533   73.5719   -8.2123 C.3     1  UNL1        0.1713
     10 C          19.2355   72.9639   -8.5181 C.3     1  UNL1        0.1764
     11 O          19.4567   71.9065   -7.5713 O.3     1  UNL1       -0.3308
     12 O          16.9953   73.4618   -9.3492 O.3     1  UNL1       -0.3794
     13 H          15.3527   73.2121   -7.1430 H       1  UNL1        0.2106
     14 H          16.0942   73.7757   -9.1947 H       1  UNL1        0.2105
     15 N          18.2404   70.7296   -5.8810 N.ar    1  UNL1       -0.2551
     16 C          17.3041   69.8228   -5.5496 C.ar    1  UNL1        0.3323
     17 N          17.3554   69.1727   -4.3719 N.ar    1  UNL1       -0.2743
     18 C          18.3551   69.4223   -3.5018 C.ar    1  UNL1        0.2626
     19 C          19.3480   70.3736   -3.8382 C.ar    1  UNL1        0.0795
     20 C          19.2741   71.0073   -5.0275 C.ar    1  UNL1        0.0869
     21 O          16.3971   69.5875   -6.3244 O.2     1  UNL1       -0.2464
     22 O          18.4028   68.8343   -2.4357 O.2     1  UNL1       -0.2670
     23 H          16.6715   68.5228   -4.1482 H       1  UNL1        0.1734
     24 O          21.8824   73.4548   -4.8122 O.3     1  UNL1       -0.2703
     25 P          22.9005   72.9282   -3.6811 P.3     1  UNL1        0.2208
     26 O          22.9990   71.3224   -3.7541 O.3     1  UNL1       -0.4371
     27 O          24.2390   73.5149   -3.9101 O.2     1  UNL1       -0.5170
     28 O          22.3627   73.3678   -2.2285 O.3     1  UNL1       -0.2865
     29 C          21.2278   72.7655   -1.6035 C.3     1  UNL1        0.2611
     30 C          20.7122   73.6801   -0.4897 C.3     1  UNL1        0.1582
     31 C          21.8014   73.8366    0.5758 C.3     1  UNL1        0.1625
     32 C          22.1935   72.4514    1.0971 C.3     1  UNL1        0.1686
     33 C          22.6522   71.5840   -0.0781 C.3     1  UNL1        0.1760
     34 O          21.3024   74.6296    1.6554 O.3     1  UNL1       -0.3801
     35 O          21.0663   71.8424    1.7295 O.3     1  UNL1       -0.3794
     36 O          21.6046   71.5044   -1.0467 O.3     1  UNL1       -0.3263
     37 H          21.9414   74.7705    2.3675 H       1  UNL1        0.2105
     38 H          21.2426   70.9596    2.0837 H       1  UNL1        0.2105
     39 C          19.1041   75.2931   -1.3557 C.2     1  UNL1        0.2231
     40 C          18.7634   76.6431   -1.9302 C.3     1  UNL1        0.0946
     41 N          20.3816   74.9933   -1.0488 N.am    1  UNL1       -0.2994
     42 O          18.2282   74.4745   -1.1689 O.2     1  UNL1       -0.2751
     43 H          21.0824   75.6471   -1.1988 H       1  UNL1        0.1496
     44 C          22.9891   70.1794    0.4259 C.3     1  UNL1        0.1693
     45 O          21.7911   69.4057    0.5183 O.3     1  UNL1       -0.3794
     46 H          21.9294   68.5016    0.8323 H       1  UNL1        0.2105
@<TRIPOS>BOND
     1    29    30    1
     2    30    41    1
     3    30    31    1
     4    31    34    1
     5    31    32    1
     6    32    35    1
     7    32    33    1
     8    33    36    1
     9    33    44    1
    10    39    40    1
    11    39    42    2
    12    39    41   am
    13    41    43    1
    14    29    28    1
    15    34    37    1
    16    35    38    1
    17    29    36    1
    18    44    45    1
    19    45    46    1
    20    15     6    1
    21    15    16   ar
    22    16    21    2
    23    16    17   ar
    24    17    23    1
    25    17    18   ar
    26    18    19   ar
    27    19    20   ar
    28    15    20   ar
    29    18    22    2
    30     6     7    1
    31     6    11    1
    32     7     9    1
    33     7     8    1
    34     8    13    1
    35     9    10    1
    36     9    12    1
    37    10     5    1
    38    10    11    1
    39    12    14    1
    40     5     4    1
    41     4     1    1
    42     1     2    1
    43     1    24    1
    44     1     3    2
    45    24    25    1
    46    28    25    1
    47    25    26    1
    48    25    27    2
@<TRIPOS>MOLECULE
UD2
 46 48 0 0 0
SMALL
GASTEIGER

@<TRIPOS>ATOM
      1 P          22.3028   70.4952   -0.0460 P.3     1  UNL1        0.2189
      2 O          21.3629   70.8698    1.2060 O.3     1  UNL1       -0.4371
      3 O          23.3483   69.5429    0.3887 O.2     1  UNL1       -0.5170
      4 O          21.4100   69.8203   -1.2041 O.3     1  UNL1       -0.3112
      5 C          21.3635   70.3217   -2.5412 C.3     1  UNL1        0.1811
      6 C          18.6407   70.7075   -4.8595 C.3     1  UNL1        0.2383
      7 C          18.5583   69.2283   -4.4042 C.3     1  UNL1        0.1895
      8 O          17.2065   68.7654   -4.4167 O.3     1  UNL1       -0.3779
      9 C          19.1034   69.3026   -2.9569 C.3     1  UNL1        0.1713
     10 C          19.9110   70.6142   -2.9255 C.3     1  UNL1        0.1764
     11 O          19.8590   71.1803   -4.2447 O.3     1  UNL1       -0.3308
     12 O          18.0261   69.3555   -2.0202 O.3     1  UNL1       -0.3794
     13 H          17.1032   67.8448   -4.1400 H       1  UNL1        0.2106
     14 H          17.4496   68.5798   -2.0384 H       1  UNL1        0.2105
     15 N          18.7316   70.7938   -6.3187 N.ar    1  UNL1       -0.2551
     16 C          17.6105   70.7467   -7.0601 C.ar    1  UNL1        0.3323
     17 N          17.6642   70.8236   -8.4030 N.ar    1  UNL1       -0.2743
     18 C          18.8520   70.9517   -9.0285 C.ar    1  UNL1        0.2626
     19 C          20.0401   71.0035   -8.2604 C.ar    1  UNL1        0.0795
     20 C          19.9562   70.9285   -6.9155 C.ar    1  UNL1        0.0869
     21 O          16.5325   70.6316   -6.5096 O.2     1  UNL1       -0.2464
     22 O          18.9020   71.0218  -10.2439 O.2     1  UNL1       -0.2670
     23 H          16.8463   70.7869   -8.9225 H       1  UNL1        0.1734
     24 O          22.9972   71.8321   -0.6151 O.3     1  UNL1       -0.2703
     25 P          22.8536   73.3990   -0.2727 P.3     1  UNL1        0.2208
     26 O          23.9521   74.2325   -1.1047 O.3     1  UNL1       -0.4371
     27 O          21.4986   73.8630   -0.6430 O.2     1  UNL1       -0.5170
     28 O          23.0872   73.6272    1.3040 O.3     1  UNL1       -0.2865
     29 C          22.8059   74.8641    1.9616 C.3     1  UNL1        0.2611
     30 C          23.8955   75.1516    2.9975 C.3     1  UNL1        0.1582
     31 C          23.8831   74.0472    4.0588 C.3     1  UNL1        0.1625
     32 C          22.4890   73.9741    4.6878 C.3     1  UNL1        0.1686
     33 C          21.4534   73.7318    3.5865 C.3     1  UNL1        0.1760
     34 O          24.8481   74.3463    5.0700 O.3     1  UNL1       -0.3801
     35 O          22.2001   75.2049    5.3533 O.3     1  UNL1       -0.3794
     36 O          21.5386   74.7775    2.6164 O.3     1  UNL1       -0.3263
     37 H          24.8951   73.6868    5.7757 H       1  UNL1        0.2105
     38 H          21.3299   75.2298    5.7754 H       1  UNL1        0.2105
     39 C          26.1126   76.1129    2.6846 C.2     1  UNL1        0.2231
     40 C          27.4571   76.1440    2.0063 C.3     1  UNL1        0.0946
     41 N          25.2029   75.1814    2.3370 N.am    1  UNL1       -0.2994
     42 O          25.8479   76.9268    3.5446 O.2     1  UNL1       -0.2751
     43 H          25.4137   74.5311    1.6488 H       1  UNL1        0.1496
     44 C          20.0517   73.7169    4.1992 C.3     1  UNL1        0.1693
     45 O          20.1332   73.3111    5.5670 O.3     1  UNL1       -0.3794
     46 H          19.2794   73.2789    6.0199 H       1  UNL1        0.2105
@<TRIPOS>BOND
     1    29    30    1
     2    30    41    1
     3    30    31    1
     4    31    34    1
     5    31    32    1
     6    32    35    1
     7    32    33    1
     8    33    36    1
     9    33    44    1
    10    39    40    1
    11    39    42    2
    12    39    41   am
    13    41    43    1
    14    29    28    1
    15    34    37    1
    16    35    38    1
    17    29    36    1
    18    44    45    1
    19    45    46    1
    20    15     6    1
    21    15    16   ar
    22    16    21    2
    23    16    17   ar
    24    17    23    1
    25    17    18   ar
    26    18    19   ar
    27    19    20   ar
    28    15    20   ar
    29    18    22    2
    30     6     7    1
    31     6    11    1
    32     7     9    1
    33     7     8    1
    34     8    13    1
    35     9    10    1
    36     9    12    1
    37    10     5    1
    38    10    11    1
    39    12    14    1
    40     5     4    1
    41     4     1    1
    42     1     2    1
    43     1    24    1
    44     1     3    2
    45    24    25    1
    46    28    25    1
    47    25    26    1
    48    25    27    2
@<TRIPOS>MOLECULE
UD2
 46 48 0 0 0
SMALL
GASTEIGER

@<TRIPOS>ATOM
      1 P          21.8631   70.8079   -0.5621 P.3     1  UNL1        0.2189
      2 O          21.5048   69.5939    0.4325 O.3     1  UNL1       -0.4371
      3 O          22.9010   70.3706   -1.5215 O.2     1  UNL1       -0.5170
      4 O          20.5403   71.2502   -1.3672 O.3     1  UNL1       -0.3112
      5 C          20.5760   71.7547   -2.7035 C.3     1  UNL1        0.1811
      6 C          18.1372   71.2038   -5.2890 C.3     1  UNL1        0.2383
      7 C          18.1464   69.8851   -4.4746 C.3     1  UNL1        0.1895
      8 O          16.8594   69.2647   -4.4941 O.3     1  UNL1       -0.3779
      9 C          18.4976   70.3842   -3.0516 C.3     1  UNL1        0.1713
     10 C          19.1606   71.7549   -3.2862 C.3     1  UNL1        0.1764
     11 O          19.2167   71.9656   -4.7061 O.3     1  UNL1       -0.3308
     12 O          17.3126   70.5290   -2.2671 O.3     1  UNL1       -0.3794
     13 H          16.8146   68.4357   -3.9986 H       1  UNL1        0.2106
     14 H          16.8228   69.7057   -2.1374 H       1  UNL1        0.2105
     15 N          18.3993   70.9373   -6.7051 N.ar    1  UNL1       -0.2551
     16 C          17.3700   70.7373   -7.5473 C.ar    1  UNL1        0.3323
     17 N          17.5815   70.4902   -8.8536 N.ar    1  UNL1       -0.2743
     18 C          18.8382   70.4411   -9.3402 C.ar    1  UNL1        0.2626
     19 C          19.9311   70.6508   -8.4652 C.ar    1  UNL1        0.0795
     20 C          19.6896   70.9008   -7.1611 C.ar    1  UNL1        0.0869
     21 O          16.2315   70.7788   -7.1224 O.2     1  UNL1       -0.2464
     22 O          19.0310   70.2180  -10.5224 O.2     1  UNL1       -0.2670
     23 H          16.8280   70.3471   -9.4468 H       1  UNL1        0.1734
     24 O          22.4135   72.0573    0.2920 O.3     1  UNL1       -0.2703
     25 P          21.7511   73.4236    0.8279 P.3     1  UNL1        0.2208
     26 O          22.4132   74.6766    0.0628 O.3     1  UNL1       -0.4371
     27 O          20.2949   73.4012    0.5681 O.2     1  UNL1       -0.5170
     28 O          22.0123   73.5617    2.4107 O.3     1  UNL1       -0.2865
     29 C          21.7654   74.7663    3.1382 C.3     1  UNL1        0.2611
     30 C          22.6031   74.7708    4.4192 C.3     1  UNL1        0.1582
     31 C          22.1733   73.5966    5.3041 C.3     1  UNL1        0.1625
     32 C          20.6736   73.7097    5.5910 C.3     1  UNL1        0.1686
     33 C          19.9100   73.7461    4.2645 C.3     1  UNL1        0.1760
     34 O          22.8993   73.6359    6.5349 O.3     1  UNL1       -0.3801
     35 O          20.4165   74.9090    6.3237 O.3     1  UNL1       -0.3794
     36 O          20.3790   74.8422    3.4767 O.3     1  UNL1       -0.3263
     37 H          22.6775   72.9191    7.1449 H       1  UNL1        0.2105
     38 H          19.4836   75.0463    6.5401 H       1  UNL1        0.2105
     39 C          24.9517   75.3163    4.7718 C.2     1  UNL1        0.2231
     40 C          26.4095   75.1748    4.4208 C.3     1  UNL1        0.0946
     41 N          24.0210   74.6327    4.0771 N.am    1  UNL1       -0.2994
     42 O          24.6144   76.0462    5.6804 O.2     1  UNL1       -0.2751
     43 H          24.2901   74.0498    3.3499 H       1  UNL1        0.1496
     44 C          18.4154   73.9192    4.5412 C.3     1  UNL1        0.1693
     45 O          18.0652   73.2092    5.7310 O.3     1  UNL1       -0.3794
     46 H          17.1300   73.2748    5.9679 H       1  UNL1        0.2105
@<TRIPOS>BOND
     1    29    30    1
     2    30    41    1
     3    30    31    1
     4    31    34    1
     5    31    32    1
     6    32    35    1
     7    32    33    1
     8    33    36    1
     9    33    44    1
    10    39    40    1
    11    39    42    2
    12    39    41   am
    13    41    43    1
    14    29    28    1
    15    34    37    1
    16    35    38    1
    17    29    36    1
    18    44    45    1
    19    45    46    1
    20    15     6    1
    21    15    16   ar
    22    16    21    2
    23    16    17   ar
    24    17    23    1
    25    17    18   ar
    26    18    19   ar
    27    19    20   ar
    28    15    20   ar
    29    18    22    2
    30     6     7    1
    31     6    11    1
    32     7     9    1
    33     7     8    1
    34     8    13    1
    35     9    10    1
    36     9    12    1
    37    10     5    1
    38    10    11    1
    39    12    14    1
    40     5     4    1
    41     4     1    1
    42     1     2    1
    43     1    24    1
    44     1     3    2
    45    24    25    1
    46    28    25    1
    47    25    26    1
    48    25    27    2
@<TRIPOS>MOLECULE
UD2
 46 48 0 0 0
SMALL
GASTEIGER

@<TRIPOS>ATOM
      1 P          21.7900   70.6671   -0.4985 P.3     1  UNL1        0.2189
      2 O          21.5946   69.3220    0.3640 O.3     1  UNL1       -0.4371
      3 O          23.0034   70.5448   -1.3362 O.2     1  UNL1       -0.5170
      4 O          20.5053   70.8895   -1.4440 O.3     1  UNL1       -0.3112
      5 C          20.5432   71.6806   -2.6332 C.3     1  UNL1        0.1811
      6 C          18.1391   71.2505   -5.2736 C.3     1  UNL1        0.2383
      7 C          18.0719   69.9292   -4.4663 C.3     1  UNL1        0.1895
      8 O          16.7593   69.3668   -4.5168 O.3     1  UNL1       -0.3779
      9 C          18.4139   70.4057   -3.0334 C.3     1  UNL1        0.1713
     10 C          19.1422   71.7465   -3.2463 C.3     1  UNL1        0.1764
     11 O          19.2385   71.9608   -4.6634 O.3     1  UNL1       -0.3308
     12 O          17.2197   70.5997   -2.2738 O.3     1  UNL1       -0.3794
     13 H          16.6668   68.5385   -4.0269 H       1  UNL1        0.2106
     14 H          16.6910   69.7986   -2.1591 H       1  UNL1        0.2105
     15 N          18.4198   70.9789   -6.6851 N.ar    1  UNL1       -0.2551
     16 C          17.4012   70.7956   -7.5439 C.ar    1  UNL1        0.3323
     17 N          17.6298   70.5442   -8.8465 N.ar    1  UNL1       -0.2743
     18 C          18.8933   70.4740   -9.3126 C.ar    1  UNL1        0.2626
     19 C          19.9752   70.6660   -8.4199 C.ar    1  UNL1        0.0795
     20 C          19.7166   70.9207   -7.1200 C.ar    1  UNL1        0.0869
     21 O          16.2568   70.8563   -7.1377 O.2     1  UNL1       -0.2464
     22 O          19.1017   70.2470  -10.4914 O.2     1  UNL1       -0.2670
     23 H          16.8838   70.4133   -9.4519 H       1  UNL1        0.1734
     24 O          21.9480   71.9242    0.4954 O.3     1  UNL1       -0.2703
     25 P          22.1889   72.0725    2.0806 P.3     1  UNL1        0.2208
     26 O          20.7755   71.9885    2.8480 O.3     1  UNL1       -0.4371
     27 O          23.0701   70.9810    2.5502 O.2     1  UNL1       -0.5170
     28 O          22.8830   73.4927    2.3873 O.3     1  UNL1       -0.2865
     29 C          22.6190   74.2488    3.5705 C.3     1  UNL1        0.2611
     30 C          21.8544   75.5228    3.2031 C.3     1  UNL1        0.1582
     31 C          22.7268   76.3848    2.2853 C.3     1  UNL1        0.1625
     32 C          24.0509   76.6861    2.9926 C.3     1  UNL1        0.1686
     33 C          24.7310   75.3668    3.3682 C.3     1  UNL1        0.1760
     34 O          22.0500   77.6102    1.9964 O.3     1  UNL1       -0.3801
     35 O          23.7984   77.4473    4.1750 O.3     1  UNL1       -0.3794
     36 O          23.8548   74.5999    4.1965 O.3     1  UNL1       -0.3263
     37 H          22.5456   78.2059    1.4179 H       1  UNL1        0.2105
     38 H          24.5948   77.6741    4.6752 H       1  UNL1        0.2105
     39 C          19.4653   75.7997    2.8121 C.2     1  UNL1        0.2231
     40 C          18.1909   75.4340    2.0974 C.3     1  UNL1        0.0946
     41 N          20.6152   75.1663    2.5077 N.am    1  UNL1       -0.2994
     42 O          19.4571   76.6650    3.6626 O.2     1  UNL1       -0.2751
     43 H          20.6219   74.4738    1.8284 H       1  UNL1        0.1496
     44 C          26.0260   75.6593    4.1284 C.3     1  UNL1        0.1693
     45 O          26.3204   74.5704    5.0059 O.3     1  UNL1       -0.3794
     46 H          27.1301   74.6878    5.5213 H       1  UNL1        0.2105
@<TRIPOS>BOND
     1    29    30    1
     2    30    41    1
     3    30    31    1
     4    31    34    1
     5    31    32    1
     6    32    35    1
     7    32    33    1
     8    33    36    1
     9    33    44    1
    10    39    40    1
    11    39    42    2
    12    39    41   am
    13    41    43    1
    14    29    28    1
    15    34    37    1
    16    35    38    1
    17    29    36    1
    18    44    45    1
    19    45    46    1
    20    15     6    1
    21    15    16   ar
    22    16    21    2
    23    16    17   ar
    24    17    23    1
    25    17    18   ar
    26    18    19   ar
    27    19    20   ar
    28    15    20   ar
    29    18    22    2
    30     6     7    1
    31     6    11    1
    32     7     9    1
    33     7     8    1
    34     8    13    1
    35     9    10    1
    36     9    12    1
    37    10     5    1
    38    10    11    1
    39    12    14    1
    40     5     4    1
    41     4     1    1
    42     1     2    1
    43     1    24    1
    44     1     3    2
    45    24    25    1
    46    28    25    1
    47    25    26    1
    48    25    27    2
@<TRIPOS>MOLECULE
UD2
 46 48 0 0 0
SMALL
GASTEIGER

@<TRIPOS>ATOM
      1 P          22.8964   72.1995   -3.2287 P.3     1  UNL1        0.2189
      2 O          23.4866   70.7038   -3.1526 O.3     1  UNL1       -0.4371
      3 O          23.5998   72.9548   -4.2887 O.2     1  UNL1       -0.5170
      4 O          21.3230   72.1388   -3.5670 O.3     1  UNL1       -0.3112
      5 C          20.3199   71.9485   -2.5674 C.3     1  UNL1        0.1811
      6 C          18.0156   71.3651   -5.2668 C.3     1  UNL1        0.2383
      7 C          17.9640   70.0663   -4.4227 C.3     1  UNL1        0.1895
      8 O          16.6718   69.4608   -4.4968 O.3     1  UNL1       -0.3779
      9 C          18.2452   70.5949   -2.9948 C.3     1  UNL1        0.1713
     10 C          18.9378   71.9516   -3.2252 C.3     1  UNL1        0.1764
     11 O          19.0724   72.1277   -4.6445 O.3     1  UNL1       -0.3308
     12 O          17.0220   70.7725   -2.2786 O.3     1  UNL1       -0.3794
     13 H          16.5897   68.6445   -3.9854 H       1  UNL1        0.2106
     14 H          16.5152   69.9584   -2.1564 H       1  UNL1        0.2105
     15 N          18.3495   71.0618   -6.6602 N.ar    1  UNL1       -0.2551
     16 C          17.3647   70.8258   -7.5452 C.ar    1  UNL1        0.3323
     17 N          17.6425   70.5444   -8.8320 N.ar    1  UNL1       -0.2743
     18 C          18.9219   70.4966   -9.2554 C.ar    1  UNL1        0.2626
     19 C          19.9685   70.7439   -8.3348 C.ar    1  UNL1        0.0795
     20 C          19.6609   71.0277   -7.0517 C.ar    1  UNL1        0.0869
     21 O          16.2065   70.8659   -7.1775 O.2     1  UNL1       -0.2464
     22 O          19.1746   70.2424  -10.4199 O.2     1  UNL1       -0.2670
     23 H          16.9204   70.3756   -9.4568 H       1  UNL1        0.1734
     24 O          23.1120   72.9345   -1.8122 O.3     1  UNL1       -0.2703
     25 P          22.9306   74.4505   -1.3004 P.3     1  UNL1        0.2208
     26 O          24.3082   75.2570   -1.5140 O.3     1  UNL1       -0.4371
     27 O          21.8514   75.1059   -2.0711 O.2     1  UNL1       -0.5170
     28 O          22.5475   74.4466    0.2636 O.3     1  UNL1       -0.2865
     29 C          23.3253   73.7714    1.2538 C.3     1  UNL1        0.2611
     30 C          22.4920   72.6521    1.8828 C.3     1  UNL1        0.1582
     31 C          21.2762   73.2652    2.5845 C.3     1  UNL1        0.1625
     32 C          21.7584   74.2829    3.6219 C.3     1  UNL1        0.1686
     33 C          22.6201   75.3396    2.9257 C.3     1  UNL1        0.1760
     34 O          20.5317   72.2341    3.2371 O.3     1  UNL1       -0.3801
     35 O          22.5329   73.6165    4.6206 O.3     1  UNL1       -0.3794
     36 O          23.7155   74.7003    2.2673 O.3     1  UNL1       -0.3263
     37 H          19.7456   72.5515    3.7024 H       1  UNL1        0.2105
     38 H          22.8724   74.2021    5.3117 H       1  UNL1        0.2105
     39 C          22.4587   70.4501    0.8400 C.2     1  UNL1        0.2231
     40 C          21.9950   69.5025   -0.2351 C.3     1  UNL1        0.0946
     41 N          22.0406   71.7312    0.8365 N.am    1  UNL1       -0.2994
     42 O          23.2093   70.0602    1.7100 O.2     1  UNL1       -0.2751
     43 H          21.4413   72.0436    0.1406 H       1  UNL1        0.1496
     44 C          23.1551   76.3266    3.9650 C.3     1  UNL1        0.1693
     45 O          24.3210   75.7808    4.5856 O.3     1  UNL1       -0.3794
     46 H          24.7147   76.3542    5.2573 H       1  UNL1        0.2105
@<TRIPOS>BOND
     1    29    30    1
     2    30    41    1
     3    30    31    1
     4    31    34    1
     5    31    32    1
     6    32    35    1
     7    32    33    1
     8    33    36    1
     9    33    44    1
    10    39    40    1
    11    39    42    2
    12    39    41   am
    13    41    43    1
    14    29    28    1
    15    34    37    1
    16    35    38    1
    17    29    36    1
    18    44    45    1
    19    45    46    1
    20    15     6    1
    21    15    16   ar
    22    16    21    2
    23    16    17   ar
    24    17    23    1
    25    17    18   ar
    26    18    19   ar
    27    19    20   ar
    28    15    20   ar
    29    18    22    2
    30     6     7    1
    31     6    11    1
    32     7     9    1
    33     7     8    1
    34     8    13    1
    35     9    10    1
    36     9    12    1
    37    10     5    1
    38    10    11    1
    39    12    14    1
    40     5     4    1
    41     4     1    1
    42     1     2    1
    43     1    24    1
    44     1     3    2
    45    24    25    1
    46    28    25    1
    47    25    26    1
    48    25    27    2
@<TRIPOS>MOLECULE
UD2
 46 48 0 0 0
SMALL
GASTEIGER

@<TRIPOS>ATOM
      1 P          22.2512   73.7068   -4.6350 P.3     1  UNL1        0.2189
      2 O          21.0471   72.6615   -4.8562 O.3     1  UNL1       -0.4371
      3 O          23.5402   72.9808   -4.6262 O.2     1  UNL1       -0.5170
      4 O          22.2512   74.7860   -5.8305 O.3     1  UNL1       -0.3112
      5 C          22.8510   74.5361   -7.1030 C.3     1  UNL1        0.1811
      6 C          19.6633   73.7385   -8.5654 C.3     1  UNL1        0.2383
      7 C          19.4193   75.0623   -7.7973 C.3     1  UNL1        0.1895
      8 O          18.4096   75.8449   -8.4374 O.3     1  UNL1       -0.3779
      9 C          20.8006   75.7551   -7.8962 C.3     1  UNL1        0.1713
     10 C          21.7792   74.6030   -8.1937 C.3     1  UNL1        0.1764
     11 O          21.0164   73.3858   -8.2046 O.3     1  UNL1       -0.3308
     12 O          20.8068   76.7053   -8.9628 O.3     1  UNL1       -0.3794
     13 H          18.2207   76.6828   -7.9937 H       1  UNL1        0.2106
     14 H          20.1668   77.4218   -8.8561 H       1  UNL1        0.2105
     15 N          18.7248   72.7049   -8.1229 N.ar    1  UNL1       -0.2551
     16 C          18.4316   71.6772   -8.9394 C.ar    1  UNL1        0.3323
     17 N          17.5725   70.7132   -8.5588 N.ar    1  UNL1       -0.2743
     18 C          16.9906   70.7639   -7.3433 C.ar    1  UNL1        0.2626
     19 C          17.2909   71.8395   -6.4732 C.ar    1  UNL1        0.0795
     20 C          18.1590   72.7897   -6.8791 C.ar    1  UNL1        0.0869
     21 O          18.9491   71.6185  -10.0381 O.2     1  UNL1       -0.2464
     22 O          16.2131   69.8918   -6.9975 O.2     1  UNL1       -0.2670
     23 H          17.3713   69.9798   -9.1603 H       1  UNL1        0.1734
     24 O          22.0523   74.4652   -3.2284 O.3     1  UNL1       -0.2703
     25 P          20.9457   74.3843   -2.0615 P.3     1  UNL1        0.2208
     26 O          21.0103   75.7225   -1.1676 O.3     1  UNL1       -0.4371
     27 O          19.6007   74.2591   -2.6645 O.2     1  UNL1       -0.5170
     28 O          21.2390   73.1028   -1.1318 O.3     1  UNL1       -0.2865
     29 C          22.5539   72.7228   -0.7222 C.3     1  UNL1        0.2611
     30 C          22.6321   71.1988   -0.6037 C.3     1  UNL1        0.1582
     31 C          21.6541   70.7286    0.4774 C.3     1  UNL1        0.1625
     32 C          21.9904   71.4312    1.7955 C.3     1  UNL1        0.1686
     33 C          21.9370   72.9467    1.5845 C.3     1  UNL1        0.1760
     34 O          21.7733   69.3141    0.6462 O.3     1  UNL1       -0.3801
     35 O          23.3022   71.0532    2.2171 O.3     1  UNL1       -0.3794
     36 O          22.8469   73.3137    0.5456 O.3     1  UNL1       -0.3263
     37 H          21.1809   68.9471    1.3167 H       1  UNL1        0.2105
     38 H          23.5824   71.4627    3.0476 H       1  UNL1        0.2105
     39 C          21.0056   70.1939   -2.1145 C.2     1  UNL1        0.2231
     40 C          20.6362   69.5674   -3.4334 C.3     1  UNL1        0.0946
     41 N          22.2736   70.5892   -1.8869 N.am    1  UNL1       -0.2994
     42 O          20.1612   70.3429   -1.2559 O.2     1  UNL1       -0.2751
     43 H          22.9492   70.4693   -2.5726 H       1  UNL1        0.1496
     44 C          22.3302   73.6562    2.8816 C.3     1  UNL1        0.1693
     45 O          21.9209   72.8666    4.0002 O.3     1  UNL1       -0.3794
     46 H          22.1384   73.2563    4.8580 H       1  UNL1        0.2105
@<TRIPOS>BOND
     1    29    30    1
     2    30    41    1
     3    30    31    1
     4    31    34    1
     5    31    32    1
     6    32    35    1
     7    32    33    1
     8    33    36    1
     9    33    44    1
    10    39    40    1
    11    39    42    2
    12    39    41   am
    13    41    43    1
    14    29    28    1
    15    34    37    1
    16    35    38    1
    17    29    36    1
    18    44    45    1
    19    45    46    1
    20    15     6    1
    21    15    16   ar
    22    16    21    2
    23    16    17   ar
    24    17    23    1
    25    17    18   ar
    26    18    19   ar
    27    19    20   ar
    28    15    20   ar
    29    18    22    2
    30     6     7    1
    31     6    11    1
    32     7     9    1
    33     7     8    1
    34     8    13    1
    35     9    10    1
    36     9    12    1
    37    10     5    1
    38    10    11    1
    39    12    14    1
    40     5     4    1
    41     4     1    1
    42     1     2    1
    43     1    24    1
    44     1     3    2
    45    24    25    1
    46    28    25    1
    47    25    26    1
    48    25    27    2
@<TRIPOS>MOLECULE
UD2
 46 48 0 0 0
SMALL
GASTEIGER

@<TRIPOS>ATOM
      1 P          22.9203   72.1927   -3.2057 P.3     1  UNL1        0.2189
      2 O          23.4383   70.6689   -3.1734 O.3     1  UNL1       -0.4371
      3 O          23.6539   72.9417   -4.2497 O.2     1  UNL1       -0.5170
      4 O          21.3441   72.2167   -3.5353 O.3     1  UNL1       -0.3112
      5 C          20.3461   71.8319   -2.5881 C.3     1  UNL1        0.1811
      6 C          18.0327   71.3509   -5.2998 C.3     1  UNL1        0.2383
      7 C          17.9354   70.0464   -4.4685 C.3     1  UNL1        0.1895
      8 O          16.6242   69.4848   -4.5523 O.3     1  UNL1       -0.3779
      9 C          18.2293   70.5517   -3.0347 C.3     1  UNL1        0.1713
     10 C          18.9670   71.8870   -3.2499 C.3     1  UNL1        0.1764
     11 O          19.1120   72.0722   -4.6670 O.3     1  UNL1       -0.3308
     12 O          17.0102   70.7627   -2.3205 O.3     1  UNL1       -0.3794
     13 H          16.5135   68.6667   -4.0490 H       1  UNL1        0.2106
     14 H          16.4764   69.9648   -2.2076 H       1  UNL1        0.2105
     15 N          18.3609   71.0501   -6.6950 N.ar    1  UNL1       -0.2551
     16 C          17.3719   70.8427   -7.5825 C.ar    1  UNL1        0.3323
     17 N          17.6444   70.5643   -8.8711 N.ar    1  UNL1       -0.2743
     18 C          18.9228   70.4907   -9.2939 C.ar    1  UNL1        0.2626
     19 C          19.9738   70.7078   -8.3707 C.ar    1  UNL1        0.0795
     20 C          19.6715   70.9894   -7.0858 C.ar    1  UNL1        0.0869
     21 O          16.2145   70.9061   -7.2154 O.2     1  UNL1       -0.2464
     22 O          19.1708   70.2392  -10.4599 O.2     1  UNL1       -0.2670
     23 H          16.9193   70.4163   -9.4975 H       1  UNL1        0.1734
     24 O          23.1784   72.8781   -1.7715 O.3     1  UNL1       -0.2703
     25 P          23.0625   74.3849   -1.2156 P.3     1  UNL1        0.2208
     26 O          24.5358   75.0211   -1.0798 O.3     1  UNL1       -0.4371
     27 O          22.2597   75.1974   -2.1555 O.2     1  UNL1       -0.5170
     28 O          22.3485   74.3709    0.2276 O.3     1  UNL1       -0.2865
     29 C          21.1974   73.5763    0.5189 C.3     1  UNL1        0.2611
     30 C          20.0826   74.4720    1.0646 C.3     1  UNL1        0.1582
     31 C          20.5496   75.1123    2.3754 C.3     1  UNL1        0.1625
     32 C          20.9405   74.0069    3.3602 C.3     1  UNL1        0.1686
     33 C          22.0225   73.1290    2.7258 C.3     1  UNL1        0.1760
     34 O          19.4881   75.8926    2.9301 O.3     1  UNL1       -0.3801
     35 O          19.7943   73.2095    3.6627 O.3     1  UNL1       -0.3794
     36 O          21.5351   72.5893    1.4956 O.3     1  UNL1       -0.3263
     37 H          19.7148   76.3287    3.7629 H       1  UNL1        0.2105
     38 H          19.9692   72.4872    4.2822 H       1  UNL1        0.2105
     39 C          20.3696   76.7272    0.1875 C.2     1  UNL1        0.2231
     40 C          20.0554   77.8063   -0.8152 C.3     1  UNL1        0.0946
     41 N          19.7763   75.5212    0.0890 N.am    1  UNL1       -0.2994
     42 O          21.1573   76.9433    1.0847 O.2     1  UNL1       -0.2751
     43 H          19.1457   75.3484   -0.6276 H       1  UNL1        0.1496
     44 C          22.3761   71.9864    3.6797 C.3     1  UNL1        0.1693
     45 O          22.0386   72.3600    5.0173 O.3     1  UNL1       -0.3794
     46 H          22.2360   71.6815    5.6774 H       1  UNL1        0.2105
@<TRIPOS>BOND
     1    29    30    1
     2    30    41    1
     3    30    31    1
     4    31    34    1
     5    31    32    1
     6    32    35    1
     7    32    33    1
     8    33    36    1
     9    33    44    1
    10    39    40    1
    11    39    42    2
    12    39    41   am
    13    41    43    1
    14    29    28    1
    15    34    37    1
    16    35    38    1
    17    29    36    1
    18    44    45    1
    19    45    46    1
    20    15     6    1
    21    15    16   ar
    22    16    21    2
    23    16    17   ar
    24    17    23    1
    25    17    18   ar
    26    18    19   ar
    27    19    20   ar
    28    15    20   ar
    29    18    22    2
    30     6     7    1
    31     6    11    1
    32     7     9    1
    33     7     8    1
    34     8    13    1
    35     9    10    1
    36     9    12    1
    37    10     5    1
    38    10    11    1
    39    12    14    1
    40     5     4    1
    41     4     1    1
    42     1     2    1
    43     1    24    1
    44     1     3    2
    45    24    25    1
    46    28    25    1
    47    25    26    1
    48    25    27    2
@<TRIPOS>MOLECULE
UD2
 46 48 0 0 0
SMALL
GASTEIGER

@<TRIPOS>ATOM
      1 P          22.8653   71.8085   -3.2289 P.3     1  UNL1        0.2189
      2 O          23.8780   72.7903   -4.0047 O.3     1  UNL1       -0.4371
      3 O          23.4212   70.4375   -3.2134 O.2     1  UNL1       -0.5170
      4 O          22.6699   72.3257   -1.7163 O.3     1  UNL1       -0.3112
      5 C          22.3869   71.4476   -0.6252 C.3     1  UNL1        0.1811
      6 C          21.3344   73.4977    2.1363 C.3     1  UNL1        0.2383
      7 C          21.3173   74.4511    0.9144 C.3     1  UNL1        0.1895
      8 O          20.3113   75.4546    1.0646 O.3     1  UNL1       -0.3779
      9 C          20.9671   73.4870   -0.2455 C.3     1  UNL1        0.1713
     10 C          21.3481   72.0951    0.2938 C.3     1  UNL1        0.1764
     11 O          21.9043   72.2817    1.6050 O.3     1  UNL1       -0.3308
     12 O          19.5700   73.5454   -0.5381 O.3     1  UNL1       -0.3794
     13 H          20.2617   76.0759    0.3255 H       1  UNL1        0.2106
     14 H          19.2636   74.4159   -0.8257 H       1  UNL1        0.2105
     15 N          22.1789   74.0408    3.2025 N.ar    1  UNL1       -0.2551
     16 C          21.6222   74.4154    4.3681 C.ar    1  UNL1        0.3323
     17 N          22.3741   74.9179    5.3652 N.ar    1  UNL1       -0.2743
     18 C          23.7069   75.0521    5.2088 C.ar    1  UNL1        0.2626
     19 C          24.3063   74.6608    3.9875 C.ar    1  UNL1        0.0795
     20 C          23.5289   74.1562    3.0065 C.ar    1  UNL1        0.0869
     21 O          20.4218   74.2999    4.5231 O.2     1  UNL1       -0.2464
     22 O          24.3886   75.5064    6.1107 O.2     1  UNL1       -0.2670
     23 H          21.9565   75.1843    6.1987 H       1  UNL1        0.1734
     24 O          21.4415   71.8022   -3.9813 O.3     1  UNL1       -0.2703
     25 P          20.0805   70.9628   -3.7914 P.3     1  UNL1        0.2208
     26 O          20.4334   69.4008   -3.6202 O.3     1  UNL1       -0.4371
     27 O          19.3690   71.4421   -2.5863 O.2     1  UNL1       -0.5170
     28 O          19.1420   71.1627   -5.0844 O.3     1  UNL1       -0.2865
     29 C          19.2844   72.2606   -5.9875 C.3     1  UNL1        0.2611
     30 C          17.9211   72.9197   -6.2101 C.3     1  UNL1        0.1582
     31 C          16.9729   71.9053   -6.8571 C.3     1  UNL1        0.1625
     32 C          17.5945   71.4022   -8.1627 C.3     1  UNL1        0.1686
     33 C          18.9708   70.8014   -7.8647 C.3     1  UNL1        0.1760
     34 O          15.7197   72.5340   -7.1359 O.3     1  UNL1       -0.3801
     35 O          17.7361   72.4922   -9.0755 O.3     1  UNL1       -0.3794
     36 O          19.7929   71.7868   -7.2362 O.3     1  UNL1       -0.3263
     37 H          15.0691   71.9482   -7.5466 H       1  UNL1        0.2105
     38 H          18.1254   72.2457   -9.9262 H       1  UNL1        0.2105
     39 C          16.5297   72.5476   -4.2446 C.2     1  UNL1        0.2231
     40 C          15.9639   72.9918   -2.9213 C.3     1  UNL1        0.0946
     41 N          17.3709   73.3526   -4.9232 N.am    1  UNL1       -0.2994
     42 O          16.2283   71.4642   -4.7004 O.2     1  UNL1       -0.2751
     43 H          17.6113   74.2192   -4.5596 H       1  UNL1        0.1496
     44 C          19.6241   70.3503   -9.1724 C.3     1  UNL1        0.1693
     45 O          18.6188   70.1787  -10.1736 O.3     1  UNL1       -0.3794
     46 H          18.9618   69.8926  -11.0312 H       1  UNL1        0.2105
@<TRIPOS>BOND
     1    29    30    1
     2    30    41    1
     3    30    31    1
     4    31    34    1
     5    31    32    1
     6    32    35    1
     7    32    33    1
     8    33    36    1
     9    33    44    1
    10    39    40    1
    11    39    42    2
    12    39    41   am
    13    41    43    1
    14    29    28    1
    15    34    37    1
    16    35    38    1
    17    29    36    1
    18    44    45    1
    19    45    46    1
    20    15     6    1
    21    15    16   ar
    22    16    21    2
    23    16    17   ar
    24    17    23    1
    25    17    18   ar
    26    18    19   ar
    27    19    20   ar
    28    15    20   ar
    29    18    22    2
    30     6     7    1
    31     6    11    1
    32     7     9    1
    33     7     8    1
    34     8    13    1
    35     9    10    1
    36     9    12    1
    37    10     5    1
    38    10    11    1
    39    12    14    1
    40     5     4    1
    41     4     1    1
    42     1     2    1
    43     1    24    1
    44     1     3    2
    45    24    25    1
    46    28    25    1
    47    25    26    1
    48    25    27    2
@<TRIPOS>MOLECULE
UD2
 46 48 0 0 0
SMALL
GASTEIGER

@<TRIPOS>ATOM
      1 P          22.8221   72.6730   -3.8440 P.3     1  UNL1        0.2189
      2 O          22.8863   72.8382   -5.4439 O.3     1  UNL1       -0.4371
      3 O          23.6264   71.5002   -3.4358 O.2     1  UNL1       -0.5170
      4 O          23.4117   73.9981   -3.1437 O.3     1  UNL1       -0.3112
      5 C          24.1448   74.9943   -3.8588 C.3     1  UNL1        0.1811
      6 C          27.7280   75.2982   -3.7929 C.3     1  UNL1        0.2383
      7 C          27.2171   76.7502   -3.9741 C.3     1  UNL1        0.1895
      8 O          28.1120   77.6852   -3.3685 O.3     1  UNL1       -0.3779
      9 C          25.8637   76.7149   -3.2228 C.3     1  UNL1        0.1713
     10 C          25.4970   75.2192   -3.1777 C.3     1  UNL1        0.1764
     11 O          26.5244   74.5053   -3.8835 O.3     1  UNL1       -0.3308
     12 O          26.0135   77.2337   -1.9002 O.3     1  UNL1       -0.3794
     13 H          27.8358   78.6075   -3.4557 H       1  UNL1        0.2106
     14 H          26.3011   78.1560   -1.8690 H       1  UNL1        0.2105
     15 N          28.6623   74.9428   -4.8634 N.ar    1  UNL1       -0.2551
     16 C          29.8312   74.3515   -4.5587 C.ar    1  UNL1        0.3323
     17 N          30.7087   74.0141   -5.5221 N.ar    1  UNL1       -0.2743
     18 C          30.4251   74.2645   -6.8165 C.ar    1  UNL1        0.2626
     19 C          29.1979   74.8855   -7.1517 C.ar    1  UNL1        0.0795
     20 C          28.3349   75.2091   -6.1657 C.ar    1  UNL1        0.0869
     21 O          30.1000   74.1195   -3.3958 O.2     1  UNL1       -0.2464
     22 O          31.2184   73.9593   -7.6895 O.2     1  UNL1       -0.2670
     23 H          31.5476   73.5895   -5.2849 H       1  UNL1        0.1734
     24 O          21.2926   72.4606   -3.3870 O.3     1  UNL1       -0.2703
     25 P          20.3081   71.1874   -3.3347 P.3     1  UNL1        0.2208
     26 O          21.1819   69.8365   -3.2636 O.3     1  UNL1       -0.4371
     27 O          19.4452   71.2797   -2.1366 O.2     1  UNL1       -0.5170
     28 O          19.3901   71.1643   -4.6573 O.3     1  UNL1       -0.2865
     29 C          19.2784   72.2767   -5.5469 C.3     1  UNL1        0.2611
     30 C          17.8007   72.5630   -5.8245 C.3     1  UNL1        0.1582
     31 C          17.1757   71.3484   -6.5178 C.3     1  UNL1        0.1625
     32 C          17.9588   71.0459   -7.7982 C.3     1  UNL1        0.1686
     33 C          19.4308   70.8180   -7.4444 C.3     1  UNL1        0.1760
     34 O          15.8145   71.6349   -6.8468 O.3     1  UNL1       -0.3801
     35 O          17.8487   72.1506   -8.6976 O.3     1  UNL1       -0.3794
     36 O          19.9425   71.9723   -6.7752 O.3     1  UNL1       -0.3263
     37 H          15.3556   70.9074   -7.2888 H       1  UNL1        0.2105
     38 H          18.3227   72.0279   -9.5321 H       1  UNL1        0.2105
     39 C          16.4887   71.8064   -3.9156 C.2     1  UNL1        0.2231
     40 C          15.7740   72.0662   -2.6155 C.3     1  UNL1        0.0946
     41 N          17.1055   72.8166   -4.5600 N.am    1  UNL1       -0.2994
     42 O          16.5093   70.6871   -4.3835 O.2     1  UNL1       -0.2751
     43 H          17.0884   73.7118   -4.1868 H       1  UNL1        0.1496
     44 C          20.2311   70.5741   -8.7253 C.3     1  UNL1        0.1693
     45 O          20.8979   71.7787   -9.1079 O.3     1  UNL1       -0.3794
     46 H          21.4258   71.6977   -9.9140 H       1  UNL1        0.2105
@<TRIPOS>BOND
     1    29    30    1
     2    30    41    1
     3    30    31    1
     4    31    34    1
     5    31    32    1
     6    32    35    1
     7    32    33    1
     8    33    36    1
     9    33    44    1
    10    39    40    1
    11    39    42    2
    12    39    41   am
    13    41    43    1
    14    29    28    1
    15    34    37    1
    16    35    38    1
    17    29    36    1
    18    44    45    1
    19    45    46    1
    20    15     6    1
    21    15    16   ar
    22    16    21    2
    23    16    17   ar
    24    17    23    1
    25    17    18   ar
    26    18    19   ar
    27    19    20   ar
    28    15    20   ar
    29    18    22    2
    30     6     7    1
    31     6    11    1
    32     7     9    1
    33     7     8    1
    34     8    13    1
    35     9    10    1
    36     9    12    1
    37    10     5    1
    38    10    11    1
    39    12    14    1
    40     5     4    1
    41     4     1    1
    42     1     2    1
    43     1    24    1
    44     1     3    2
    45    24    25    1
    46    28    25    1
    47    25    26    1
    48    25    27    2
@<TRIPOS>MOLECULE
UD2
 46 48 0 0 0
SMALL
GASTEIGER

@<TRIPOS>ATOM
      1 P          22.0704   70.5204   -0.1032 P.3     1  UNL1        0.2189
      2 O          21.3032   70.9571    1.2430 O.3     1  UNL1       -0.4371
      3 O          22.9988   69.4081    0.1961 O.2     1  UNL1       -0.5170
      4 O          20.9950   70.0410   -1.2020 O.3     1  UNL1       -0.3112
      5 C          21.0647   70.4245   -2.5766 C.3     1  UNL1        0.1811
      6 C          18.4798   70.9021   -5.0315 C.3     1  UNL1        0.2383
      7 C          18.1690   69.5203   -4.4021 C.3     1  UNL1        0.1895
      8 O          16.7641   69.2598   -4.4118 O.3     1  UNL1       -0.3779
      9 C          18.6879   69.6983   -2.9542 C.3     1  UNL1        0.1713
     10 C          19.6803   70.8726   -3.0516 C.3     1  UNL1        0.1764
     11 O          19.7412   71.2680   -4.4312 O.3     1  UNL1       -0.3308
     12 O          17.6105   70.0249   -2.0748 O.3     1  UNL1       -0.3794
     13 H          16.5193   68.4065   -4.0288 H       1  UNL1        0.2106
     14 H          16.9258   69.3447   -2.0209 H       1  UNL1        0.2105
     15 N          18.6137   70.7882   -6.4855 N.ar    1  UNL1       -0.2551
     16 C          17.5120   70.7676   -7.2566 C.ar    1  UNL1        0.3323
     17 N          17.6053   70.6635   -8.5956 N.ar    1  UNL1       -0.2743
     18 C          18.8143   70.5798   -9.1872 C.ar    1  UNL1        0.2626
     19 C          19.9824   70.6014   -8.3877 C.ar    1  UNL1        0.0795
     20 C          19.8593   70.7107   -7.0481 C.ar    1  UNL1        0.0869
     21 O          16.4154   70.8425   -6.7368 O.2     1  UNL1       -0.2464
     22 O          18.9002   70.4860  -10.3989 O.2     1  UNL1       -0.2670
     23 H          16.8009   70.6489   -9.1366 H       1  UNL1        0.1734
     24 O          22.9017   71.7740   -0.6782 O.3     1  UNL1       -0.2703
     25 P          22.6987   73.3704   -0.6220 P.3     1  UNL1        0.2208
     26 O          21.3178   73.7613   -1.3529 O.3     1  UNL1       -0.4371
     27 O          22.6517   73.8127    0.7888 O.2     1  UNL1       -0.5170
     28 O          23.9265   74.0941   -1.3712 O.3     1  UNL1       -0.2865
     29 C          23.9796   75.5042   -1.5951 C.3     1  UNL1        0.2611
     30 C          24.2001   75.7774   -3.0849 C.3     1  UNL1        0.1582
     31 C          25.5489   75.1880   -3.5090 C.3     1  UNL1        0.1625
     32 C          26.6542   75.7919   -2.6383 C.3     1  UNL1        0.1686
     33 C          26.3390   75.5180   -1.1654 C.3     1  UNL1        0.1760
     34 O          25.7966   75.5023   -4.8813 O.3     1  UNL1       -0.3801
     35 O          26.7195   77.2019   -2.8591 O.3     1  UNL1       -0.3794
     36 O          25.0585   76.0650   -0.8442 O.3     1  UNL1       -0.3263
     37 H          26.6355   75.1585   -5.2179 H       1  UNL1        0.2105
     38 H          27.3995   77.6513   -2.3379 H       1  UNL1        0.2105
     39 C          23.2816   73.9020   -4.3406 C.2     1  UNL1        0.2231
     40 C          22.1783   73.2582   -5.1386 C.3     1  UNL1        0.0946
     41 N          23.1265   75.1519   -3.8612 N.am    1  UNL1       -0.2994
     42 O          24.3109   73.2954   -4.1291 O.2     1  UNL1       -0.2751
     43 H          22.3041   75.6376   -4.0309 H       1  UNL1        0.1496
     44 C          27.4076   76.1696   -0.2857 C.3     1  UNL1        0.1693
     45 O          27.4048   75.5535    1.0038 O.3     1  UNL1       -0.3794
     46 H          28.0590   75.9177    1.6157 H       1  UNL1        0.2105
@<TRIPOS>BOND
     1    29    30    1
     2    30    41    1
     3    30    31    1
     4    31    34    1
     5    31    32    1
     6    32    35    1
     7    32    33    1
     8    33    36    1
     9    33    44    1
    10    39    40    1
    11    39    42    2
    12    39    41   am
    13    41    43    1
    14    29    28    1
    15    34    37    1
    16    35    38    1
    17    29    36    1
    18    44    45    1
    19    45    46    1
    20    15     6    1
    21    15    16   ar
    22    16    21    2
    23    16    17   ar
    24    17    23    1
    25    17    18   ar
    26    18    19   ar
    27    19    20   ar
    28    15    20   ar
    29    18    22    2
    30     6     7    1
    31     6    11    1
    32     7     9    1
    33     7     8    1
    34     8    13    1
    35     9    10    1
    36     9    12    1
    37    10     5    1
    38    10    11    1
    39    12    14    1
    40     5     4    1
    41     4     1    1
    42     1     2    1
    43     1    24    1
    44     1     3    2
    45    24    25    1
    46    28    25    1
    47    25    26    1
    48    25    27    2
@<TRIPOS>MOLECULE
UD2
 46 48 0 0 0
SMALL
GASTEIGER

@<TRIPOS>ATOM
      1 P          20.4961   70.3971   -2.7377 P.3     1  UNL1        0.2189
      2 O          22.0193   69.9730   -3.0398 O.3     1  UNL1       -0.4371
      3 O          19.6695   69.1819   -2.5678 O.2     1  UNL1       -0.5170
      4 O          20.4413   71.2764   -1.3896 O.3     1  UNL1       -0.3112
      5 C          21.1605   72.5007   -1.2306 C.3     1  UNL1        0.1811
      6 C          23.1269   72.2862    1.7734 C.3     1  UNL1        0.2383
      7 C          22.5864   70.8497    1.5580 C.3     1  UNL1        0.1895
      8 O          23.5046   69.8782    2.0629 O.3     1  UNL1       -0.3779
      9 C          22.4881   70.7671    0.0149 C.3     1  UNL1        0.1713
     10 C          22.4440   72.2387   -0.4388 C.3     1  UNL1        0.1764
     11 O          22.4627   73.0522    0.7450 O.3     1  UNL1       -0.3308
     12 O          23.6372   70.1113   -0.5238 O.3     1  UNL1       -0.3794
     13 H          23.2107   68.9639    1.9519 H       1  UNL1        0.2106
     14 H          23.7470   69.1989   -0.2239 H       1  UNL1        0.2105
     15 N          22.7618   72.7808    3.1027 N.ar    1  UNL1       -0.2551
     16 C          21.5225   72.5628    3.5776 C.ar    1  UNL1        0.3323
     17 N          21.1595   73.0062    4.7957 N.ar    1  UNL1       -0.2743
     18 C          22.0407   73.6787    5.5636 C.ar    1  UNL1        0.2626
     19 C          23.3490   73.9143    5.0767 C.ar    1  UNL1        0.0795
     20 C          23.6870   73.4548    3.8535 C.ar    1  UNL1        0.0869
     21 O          20.7176   71.9577    2.8962 O.2     1  UNL1       -0.2464
     22 O          21.7135   74.0801    6.6665 O.2     1  UNL1       -0.2670
     23 H          20.2615   72.8414    5.1224 H       1  UNL1        0.1734
     24 O          19.9266   71.2662   -3.9680 O.3     1  UNL1       -0.2703
     25 P          20.3968   72.6284   -4.6866 P.3     1  UNL1        0.2208
     26 O          19.6572   73.8816   -3.9964 O.3     1  UNL1       -0.4371
     27 O          21.8613   72.7813   -4.5445 O.2     1  UNL1       -0.5170
     28 O          20.0118   72.5714   -6.2490 O.3     1  UNL1       -0.2865
     29 C          20.1523   71.3919   -7.0428 C.3     1  UNL1        0.2611
     30 C          20.1683   71.7722   -8.5253 C.3     1  UNL1        0.1582
     31 C          18.8305   72.4225   -8.8912 C.3     1  UNL1        0.1625
     32 C          17.6946   71.4532   -8.5529 C.3     1  UNL1        0.1686
     33 C          17.7739   71.0851   -7.0689 C.3     1  UNL1        0.1760
     34 O          18.8086   72.7143  -10.2904 O.3     1  UNL1       -0.3801
     35 O          17.8226   70.2718   -9.3461 O.3     1  UNL1       -0.3794
     36 O          19.0535   70.5139   -6.7893 O.3     1  UNL1       -0.3263
     37 H          17.9890   73.1293  -10.5924 H       1  UNL1        0.2105
     38 H          17.1346   69.6114   -9.1831 H       1  UNL1        0.2105
     39 C          21.0157   74.0448   -8.7597 C.2     1  UNL1        0.2231
     40 C          22.1352   75.0191   -9.0168 C.3     1  UNL1        0.0946
     41 N          21.2578   72.7192   -8.7757 N.am    1  UNL1       -0.2994
     42 O          19.8948   74.4533   -8.5381 O.2     1  UNL1       -0.2751
     43 H          22.1535   72.3923   -8.9539 H       1  UNL1        0.1496
     44 C          16.6783   70.0705   -6.7361 C.3     1  UNL1        0.1693
     45 O          16.7280   69.7544   -5.3433 O.3     1  UNL1       -0.3794
     46 H          16.0600   69.1151   -5.0605 H       1  UNL1        0.2105
@<TRIPOS>BOND
     1    29    30    1
     2    30    41    1
     3    30    31    1
     4    31    34    1
     5    31    32    1
     6    32    35    1
     7    32    33    1
     8    33    36    1
     9    33    44    1
    10    39    40    1
    11    39    42    2
    12    39    41   am
    13    41    43    1
    14    29    28    1
    15    34    37    1
    16    35    38    1
    17    29    36    1
    18    44    45    1
    19    45    46    1
    20    15     6    1
    21    15    16   ar
    22    16    21    2
    23    16    17   ar
    24    17    23    1
    25    17    18   ar
    26    18    19   ar
    27    19    20   ar
    28    15    20   ar
    29    18    22    2
    30     6     7    1
    31     6    11    1
    32     7     9    1
    33     7     8    1
    34     8    13    1
    35     9    10    1
    36     9    12    1
    37    10     5    1
    38    10    11    1
    39    12    14    1
    40     5     4    1
    41     4     1    1
    42     1     2    1
    43     1    24    1
    44     1     3    2
    45    24    25    1
    46    28    25    1
    47    25    26    1
    48    25    27    2
@<TRIPOS>MOLECULE
UD2
 46 48 0 0 0
SMALL
GASTEIGER

@<TRIPOS>ATOM
      1 P          22.2631   72.9348   -3.8923 P.3     1  UNL1        0.2189
      2 O          23.8577   72.7584   -4.0256 O.3     1  UNL1       -0.4371
      3 O          21.6242   71.6031   -3.8082 O.2     1  UNL1       -0.5170
      4 O          21.9259   73.7769   -2.5616 O.3     1  UNL1       -0.3112
      5 C          21.4455   73.1717   -1.3598 C.3     1  UNL1        0.1811
      6 C          23.1941   72.3926    1.6852 C.3     1  UNL1        0.2383
      7 C          22.4509   71.0835    1.3167 C.3     1  UNL1        0.1895
      8 O          23.1805   69.9394    1.7645 O.3     1  UNL1       -0.3779
      9 C          22.4225   71.1498   -0.2300 C.3     1  UNL1        0.1713
     10 C          22.6297   72.6432   -0.5467 C.3     1  UNL1        0.1764
     11 O          22.7110   73.3392    0.7073 O.3     1  UNL1       -0.3308
     12 O          23.4837   70.3690   -0.7823 O.3     1  UNL1       -0.3794
     13 H          22.7555   69.0960    1.5579 H       1  UNL1        0.2106
     14 H          23.4357   69.4285   -0.5643 H       1  UNL1        0.2105
     15 N          22.8398   72.8232    3.0395 N.ar    1  UNL1       -0.2551
     16 C          21.6170   72.5487    3.5276 C.ar    1  UNL1        0.3323
     17 N          21.2643   72.9325    4.7687 N.ar    1  UNL1       -0.2743
     18 C          22.1395   73.6012    5.5468 C.ar    1  UNL1        0.2626
     19 C          23.4305   73.8960    5.0462 C.ar    1  UNL1        0.0795
     20 C          23.7586   73.4954    3.7998 C.ar    1  UNL1        0.0869
     21 O          20.8178   71.9463    2.8372 O.2     1  UNL1       -0.2464
     22 O          21.8216   73.9488    6.6705 O.2     1  UNL1       -0.2670
     23 H          20.3781   72.7275    5.1047 H       1  UNL1        0.1734
     24 O          21.7003   73.7201   -5.1806 O.3     1  UNL1       -0.2703
     25 P          21.3878   73.2934   -6.7016 P.3     1  UNL1        0.2208
     26 O          21.2354   74.6153   -7.6088 O.3     1  UNL1       -0.4371
     27 O          22.4985   72.4653   -7.2201 O.2     1  UNL1       -0.5170
     28 O          20.0187   72.4473   -6.7509 O.3     1  UNL1       -0.2865
     29 C          18.7978   72.9074   -6.1685 C.3     1  UNL1        0.2611
     30 C          17.9654   71.7071   -5.7112 C.3     1  UNL1        0.1582
     31 C          17.6059   70.8520   -6.9302 C.3     1  UNL1        0.1625
     32 C          16.8617   71.7205   -7.9481 C.3     1  UNL1        0.1686
     33 C          17.7370   72.9205   -8.3193 C.3     1  UNL1        0.1760
     34 O          16.7669   69.7688   -6.5225 O.3     1  UNL1       -0.3801
     35 O          15.6358   72.1813   -7.3772 O.3     1  UNL1       -0.3794
     36 O          18.0606   73.6557   -7.1375 O.3     1  UNL1       -0.3263
     37 H          16.5006   69.1845   -7.2456 H       1  UNL1        0.2105
     38 H          15.1113   72.7397   -7.9680 H       1  UNL1        0.2105
     39 C          18.1358   70.3451   -3.6979 C.2     1  UNL1        0.2231
     40 C          18.9341   69.5206   -2.7224 C.3     1  UNL1        0.0946
     41 N          18.7427   70.9055   -4.7627 N.am    1  UNL1       -0.2994
     42 O          16.9455   70.5052   -3.5253 O.2     1  UNL1       -0.2751
     43 H          19.6945   70.7785   -4.9005 H       1  UNL1        0.1496
     44 C          16.9765   73.8251   -9.2908 C.3     1  UNL1        0.1693
     45 O          15.5772   73.5471   -9.2056 O.3     1  UNL1       -0.3794
     46 H          15.0321   74.0852   -9.7958 H       1  UNL1        0.2105
@<TRIPOS>BOND
     1    29    30    1
     2    30    41    1
     3    30    31    1
     4    31    34    1
     5    31    32    1
     6    32    35    1
     7    32    33    1
     8    33    36    1
     9    33    44    1
    10    39    40    1
    11    39    42    2
    12    39    41   am
    13    41    43    1
    14    29    28    1
    15    34    37    1
    16    35    38    1
    17    29    36    1
    18    44    45    1
    19    45    46    1
    20    15     6    1
    21    15    16   ar
    22    16    21    2
    23    16    17   ar
    24    17    23    1
    25    17    18   ar
    26    18    19   ar
    27    19    20   ar
    28    15    20   ar
    29    18    22    2
    30     6     7    1
    31     6    11    1
    32     7     9    1
    33     7     8    1
    34     8    13    1
    35     9    10    1
    36     9    12    1
    37    10     5    1
    38    10    11    1
    39    12    14    1
    40     5     4    1
    41     4     1    1
    42     1     2    1
    43     1    24    1
    44     1     3    2
    45    24    25    1
    46    28    25    1
    47    25    26    1
    48    25    27    2
@<TRIPOS>MOLECULE
UD2
 46 48 0 0 0
SMALL
GASTEIGER

@<TRIPOS>ATOM
      1 P          20.7481   72.8665   -5.7592 P.3     1  UNL1        0.2189
      2 O          21.1931   74.2684   -6.4134 O.3     1  UNL1       -0.4371
      3 O          19.5461   73.0719   -4.9214 O.2     1  UNL1       -0.5170
      4 O          20.4132   71.8111   -6.9286 O.3     1  UNL1       -0.3112
      5 C          19.4027   70.8086   -6.8048 C.3     1  UNL1        0.1811
      6 C          16.6040   72.6869   -8.0602 C.3     1  UNL1        0.2383
      7 C          17.8321   73.2766   -8.7992 C.3     1  UNL1        0.1895
      8 O          17.4684   73.7458  -10.0990 O.3     1  UNL1       -0.3779
      9 C          18.7722   72.0502   -8.8977 C.3     1  UNL1        0.1713
     10 C          18.2705   71.1015   -7.7924 C.3     1  UNL1        0.1764
     11 O          17.1914   71.7657   -7.1157 O.3     1  UNL1       -0.3308
     12 O          18.6531   71.4321  -10.1801 O.3     1  UNL1       -0.3794
     13 H          18.2030   74.1244  -10.6006 H       1  UNL1        0.2106
     14 H          18.8999   72.0053  -10.9183 H       1  UNL1        0.2105
     15 N          15.8667   73.7422   -7.3617 N.ar    1  UNL1       -0.2551
     16 C          14.8108   74.3239   -7.9579 C.ar    1  UNL1        0.3323
     17 N          14.1149   75.2963   -7.3396 N.ar    1  UNL1       -0.2743
     18 C          14.4685   75.7028   -6.1033 C.ar    1  UNL1        0.2626
     19 C          15.5773   75.0984   -5.4635 C.ar    1  UNL1        0.0795
     20 C          16.2542   74.1229   -6.1052 C.ar    1  UNL1        0.0869
     21 O          14.4805   73.9673   -9.0724 O.2     1  UNL1       -0.2464
     22 O          13.8392   76.5825   -5.5424 O.2     1  UNL1       -0.2670
     23 H          13.3569   75.7059   -7.7842 H       1  UNL1        0.1734
     24 O          21.9464   72.2946   -4.8481 O.3     1  UNL1       -0.2703
     25 P          22.0041   71.4320   -3.4896 P.3     1  UNL1        0.2208
     26 O          20.9744   70.1980   -3.5939 O.3     1  UNL1       -0.4371
     27 O          23.3755   70.9139   -3.2918 O.2     1  UNL1       -0.5170
     28 O          21.5980   72.3665   -2.2429 O.3     1  UNL1       -0.2865
     29 C          20.5923   72.0054   -1.2945 C.3     1  UNL1        0.2611
     30 C          20.1785   73.2417   -0.4925 C.3     1  UNL1        0.1582
     31 C          21.3893   73.7616    0.2887 C.3     1  UNL1        0.1625
     32 C          21.9249   72.6412    1.1843 C.3     1  UNL1        0.1686
     33 C          22.2715   71.4278    0.3174 C.3     1  UNL1        0.1760
     34 O          20.9943   74.8720    1.0976 O.3     1  UNL1       -0.3801
     35 O          20.9282   72.2765    2.1407 O.3     1  UNL1       -0.3794
     36 O          21.1105   71.0137   -0.4055 O.3     1  UNL1       -0.3263
     37 H          21.7133   75.2528    1.6202 H       1  UNL1        0.2105
     38 H          21.1997   71.5693    2.7426 H       1  UNL1        0.2105
     39 C          18.3989   74.6224   -1.4221 C.2     1  UNL1        0.2231
     40 C          17.9090   75.6920   -2.3626 C.3     1  UNL1        0.0946
     41 N          19.7028   74.2821   -1.4077 N.am    1  UNL1       -0.2994
     42 O          17.6195   74.0664   -0.6767 O.2     1  UNL1       -0.2751
     43 H          20.3261   74.7256   -2.0042 H       1  UNL1        0.1496
     44 C          22.7514   70.2829    1.2114 C.3     1  UNL1        0.1693
     45 O          22.8659   69.0879    0.4360 O.3     1  UNL1       -0.3794
     46 H          23.1662   68.3190    0.9395 H       1  UNL1        0.2105
@<TRIPOS>BOND
     1    29    30    1
     2    30    41    1
     3    30    31    1
     4    31    34    1
     5    31    32    1
     6    32    35    1
     7    32    33    1
     8    33    36    1
     9    33    44    1
    10    39    40    1
    11    39    42    2
    12    39    41   am
    13    41    43    1
    14    29    28    1
    15    34    37    1
    16    35    38    1
    17    29    36    1
    18    44    45    1
    19    45    46    1
    20    15     6    1
    21    15    16   ar
    22    16    21    2
    23    16    17   ar
    24    17    23    1
    25    17    18   ar
    26    18    19   ar
    27    19    20   ar
    28    15    20   ar
    29    18    22    2
    30     6     7    1
    31     6    11    1
    32     7     9    1
    33     7     8    1
    34     8    13    1
    35     9    10    1
    36     9    12    1
    37    10     5    1
    38    10    11    1
    39    12    14    1
    40     5     4    1
    41     4     1    1
    42     1     2    1
    43     1    24    1
    44     1     3    2
    45    24    25    1
    46    28    25    1
    47    25    26    1
    48    25    27    2
@<TRIPOS>MOLECULE
UD2
 46 48 0 0 0
SMALL
GASTEIGER

@<TRIPOS>ATOM
      1 P          22.4060   74.3941   -5.4406 P.3     1  UNL1        0.2189
      2 O          23.5273   75.3371   -6.1074 O.3     1  UNL1       -0.4371
      3 O          21.6213   75.1770   -4.4606 O.2     1  UNL1       -0.5170
      4 O          21.4251   73.8332   -6.5882 O.3     1  UNL1       -0.3112
      5 C          21.7310   72.6822   -7.3777 C.3     1  UNL1        0.1811
      6 C          18.2646   71.9168   -7.9564 C.3     1  UNL1        0.2383
      7 C          18.9659   71.5867   -9.2985 C.3     1  UNL1        0.1895
      8 O          18.2955   70.5221   -9.9760 O.3     1  UNL1       -0.3779
      9 C          20.3734   71.1433   -8.8296 C.3     1  UNL1        0.1713
     10 C          20.5124   71.7570   -7.4233 C.3     1  UNL1        0.1764
     11 O          19.3169   72.5103   -7.1651 O.3     1  UNL1       -0.3308
     12 O          20.4515   69.7184   -8.7640 O.3     1  UNL1       -0.3794
     13 H          18.6966   70.2794  -10.8215 H       1  UNL1        0.2106
     14 H          20.3120   69.2766   -9.6124 H       1  UNL1        0.2105
     15 N          17.1744   72.8721   -8.1654 N.ar    1  UNL1       -0.2551
     16 C          16.0665   72.7954   -7.4068 C.ar    1  UNL1        0.3323
     17 N          15.0489   73.6600   -7.5771 N.ar    1  UNL1       -0.2743
     18 C          15.1274   74.6240   -8.5169 C.ar    1  UNL1        0.2626
     19 C          16.2883   74.7170   -9.3219 C.ar    1  UNL1        0.0795
     20 C          17.2949   73.8395   -9.1265 C.ar    1  UNL1        0.0869
     21 O          15.9820   71.9314   -6.5554 O.2     1  UNL1       -0.2464
     22 O          14.2073   75.4075   -8.6719 O.2     1  UNL1       -0.2670
     23 H          14.2567   73.5899   -7.0224 H       1  UNL1        0.1734
     24 O          23.1186   73.1583   -4.6935 O.3     1  UNL1       -0.2703
     25 P          22.6933   72.1908   -3.4787 P.3     1  UNL1        0.2208
     26 O          21.1609   71.7331   -3.6689 O.3     1  UNL1       -0.4371
     27 O          23.5666   70.9967   -3.4696 O.2     1  UNL1       -0.5170
     28 O          22.8488   72.9805   -2.0841 O.3     1  UNL1       -0.2865
     29 C          21.7319   73.4479   -1.3255 C.3     1  UNL1        0.2611
     30 C          22.1107   74.7430   -0.6029 C.3     1  UNL1        0.1582
     31 C          23.2516   74.4552    0.3780 C.3     1  UNL1        0.1625
     32 C          22.8107   73.3564    1.3489 C.3     1  UNL1        0.1686
     33 C          22.4048   72.1145    0.5508 C.3     1  UNL1        0.1760
     34 O          23.5624   75.6429    1.1101 O.3     1  UNL1       -0.3801
     35 O          21.6971   73.8162    2.1169 O.3     1  UNL1       -0.3794
     36 O          21.3619   72.4578   -0.3637 O.3     1  UNL1       -0.3263
     37 H          24.2784   75.5335    1.7508 H       1  UNL1        0.2105
     38 H          21.3639   73.1690    2.7542 H       1  UNL1        0.2105
     39 C          23.8528   75.8454   -1.9020 C.2     1  UNL1        0.2231
     40 C          24.3027   76.8704   -2.9098 C.3     1  UNL1        0.0946
     41 N          22.5476   75.7404   -1.5831 N.am    1  UNL1       -0.2994
     42 O          24.6655   75.1136   -1.3766 O.2     1  UNL1       -0.2751
     43 H          21.8976   76.3260   -2.0022 H       1  UNL1        0.1496
     44 C          21.9064   71.0323    1.5104 C.3     1  UNL1        0.1693
     45 O          21.7285   69.8070    0.7968 O.3     1  UNL1       -0.3794
     46 H          21.4131   69.0747    1.3439 H       1  UNL1        0.2105
@<TRIPOS>BOND
     1    29    30    1
     2    30    41    1
     3    30    31    1
     4    31    34    1
     5    31    32    1
     6    32    35    1
     7    32    33    1
     8    33    36    1
     9    33    44    1
    10    39    40    1
    11    39    42    2
    12    39    41   am
    13    41    43    1
    14    29    28    1
    15    34    37    1
    16    35    38    1
    17    29    36    1
    18    44    45    1
    19    45    46    1
    20    15     6    1
    21    15    16   ar
    22    16    21    2
    23    16    17   ar
    24    17    23    1
    25    17    18   ar
    26    18    19   ar
    27    19    20   ar
    28    15    20   ar
    29    18    22    2
    30     6     7    1
    31     6    11    1
    32     7     9    1
    33     7     8    1
    34     8    13    1
    35     9    10    1
    36     9    12    1
    37    10     5    1
    38    10    11    1
    39    12    14    1
    40     5     4    1
    41     4     1    1
    42     1     2    1
    43     1    24    1
    44     1     3    2
    45    24    25    1
    46    28    25    1
    47    25    26    1
    48    25    27    2
@<TRIPOS>MOLECULE
UD2
 46 48 0 0 0
SMALL
GASTEIGER

@<TRIPOS>ATOM
      1 P          20.1204   70.8028   -3.5407 P.3     1  UNL1        0.2189
      2 O          20.3958   70.0989   -2.1194 O.3     1  UNL1       -0.4371
      3 O          20.1527   69.7827   -4.6117 O.2     1  UNL1       -0.5170
      4 O          18.6740   71.5108   -3.5173 O.3     1  UNL1       -0.3112
      5 C          17.4895   70.8748   -4.0009 C.3     1  UNL1        0.1811
      6 C          18.2505   72.3664   -7.1841 C.3     1  UNL1        0.2383
      7 C          18.2615   70.8406   -7.4561 C.3     1  UNL1        0.1895
      8 O          17.8517   70.5583   -8.7956 O.3     1  UNL1       -0.3779
      9 C          17.2171   70.3212   -6.4379 C.3     1  UNL1        0.1713
     10 C          17.1353   71.4378   -5.3796 C.3     1  UNL1        0.1764
     11 O          18.0833   72.4507   -5.7522 O.3     1  UNL1       -0.3308
     12 O          15.9501   70.1386   -7.0719 O.3     1  UNL1       -0.3794
     13 H          17.8429   69.6166   -9.0143 H       1  UNL1        0.2106
     14 H          15.9574   69.4884   -7.7872 H       1  UNL1        0.2105
     15 N          19.5198   72.9723   -7.5923 N.ar    1  UNL1       -0.2551
     16 C          19.5147   74.0779   -8.3581 C.ar    1  UNL1        0.3323
     17 N          20.6663   74.6558   -8.7482 N.ar    1  UNL1       -0.2743
     18 C          21.8504   74.1312   -8.3721 C.ar    1  UNL1        0.2626
     19 C          21.8705   72.9682   -7.5652 C.ar    1  UNL1        0.0795
     20 C          20.7008   72.4123   -7.1853 C.ar    1  UNL1        0.0869
     21 O          18.4545   74.5619   -8.7045 O.2     1  UNL1       -0.2464
     22 O          22.8933   74.6535   -8.7242 O.2     1  UNL1       -0.2670
     23 H          20.6447   75.4519   -9.3012 H       1  UNL1        0.1734
     24 O          21.2551   71.9109   -3.8200 O.3     1  UNL1       -0.2703
     25 P          22.8056   72.0514   -3.4088 P.3     1  UNL1        0.2208
     26 O          23.4162   70.5908   -3.1129 O.3     1  UNL1       -0.4371
     27 O          23.5548   72.6833   -4.5168 O.2     1  UNL1       -0.5170
     28 O          22.9299   72.9632   -2.0876 O.3     1  UNL1       -0.2865
     29 C          21.7993   73.3773   -1.3183 C.3     1  UNL1        0.2611
     30 C          22.1411   74.6605   -0.5573 C.3     1  UNL1        0.1582
     31 C          23.2878   74.3758    0.4175 C.3     1  UNL1        0.1625
     32 C          22.8760   73.2373    1.3548 C.3     1  UNL1        0.1686
     33 C          22.5059   72.0085    0.5198 C.3     1  UNL1        0.1760
     34 O          23.5646   75.5497    1.1847 O.3     1  UNL1       -0.3801
     35 O          21.7490   73.6435    2.1333 O.3     1  UNL1       -0.3794
     36 O          21.4553   72.3495   -0.3868 O.3     1  UNL1       -0.3263
     37 H          24.2824   75.4413    1.8236 H       1  UNL1        0.2105
     38 H          21.4328   72.9690    2.7506 H       1  UNL1        0.2105
     39 C          23.8513   75.8333   -1.8369 C.2     1  UNL1        0.2231
     40 C          24.2743   76.8993   -2.8133 C.3     1  UNL1        0.0946
     41 N          22.5518   75.6979   -1.5069 N.am    1  UNL1       -0.2994
     42 O          24.6808   75.0956   -1.3469 O.2     1  UNL1       -0.2751
     43 H          21.8884   76.2881   -1.8976 H       1  UNL1        0.1496
     44 C          22.0361   70.8854    1.4462 C.3     1  UNL1        0.1693
     45 O          21.6411   69.7560    0.6646 O.3     1  UNL1       -0.3794
     46 H          21.3309   69.0042    1.1875 H       1  UNL1        0.2105
@<TRIPOS>BOND
     1    29    30    1
     2    30    41    1
     3    30    31    1
     4    31    34    1
     5    31    32    1
     6    32    35    1
     7    32    33    1
     8    33    36    1
     9    33    44    1
    10    39    40    1
    11    39    42    2
    12    39    41   am
    13    41    43    1
    14    29    28    1
    15    34    37    1
    16    35    38    1
    17    29    36    1
    18    44    45    1
    19    45    46    1
    20    15     6    1
    21    15    16   ar
    22    16    21    2
    23    16    17   ar
    24    17    23    1
    25    17    18   ar
    26    18    19   ar
    27    19    20   ar
    28    15    20   ar
    29    18    22    2
    30     6     7    1
    31     6    11    1
    32     7     9    1
    33     7     8    1
    34     8    13    1
    35     9    10    1
    36     9    12    1
    37    10     5    1
    38    10    11    1
    39    12    14    1
    40     5     4    1
    41     4     1    1
    42     1     2    1
    43     1    24    1
    44     1     3    2
    45    24    25    1
    46    28    25    1
    47    25    26    1
    48    25    27    2
@<TRIPOS>MOLECULE
UD2
 46 48 0 0 0
SMALL
GASTEIGER

@<TRIPOS>ATOM
      1 P          22.1437   71.2989   -3.1432 P.3     1  UNL1        0.2189
      2 O          23.4837   70.6210   -2.5634 O.3     1  UNL1       -0.4371
      3 O          21.1660   70.2436   -3.4888 O.2     1  UNL1       -0.5170
      4 O          21.5100   72.2735   -2.0286 O.3     1  UNL1       -0.3112
      5 C          22.2841   73.2285   -1.3006 C.3     1  UNL1        0.1811
      6 C          22.6840   73.3560    2.2716 C.3     1  UNL1        0.2383
      7 C          21.2583   72.7863    2.0591 C.3     1  UNL1        0.1895
      8 O          20.9010   71.8974    3.1193 O.3     1  UNL1       -0.3779
      9 C          21.4104   72.0193    0.7227 C.3     1  UNL1        0.1713
     10 C          22.6543   72.6486    0.0668 C.3     1  UNL1        0.1764
     11 O          23.1113   73.6978    0.9351 O.3     1  UNL1       -0.3308
     12 O          21.6233   70.6281    0.9675 O.3     1  UNL1       -0.3794
     13 H          20.0173   71.5155    3.0317 H       1  UNL1        0.2106
     14 H          20.8953   70.1937    1.4320 H       1  UNL1        0.2105
     15 N          22.6416   74.5485    3.1209 N.ar    1  UNL1       -0.2551
     16 C          23.6010   74.7443    4.0429 C.ar    1  UNL1        0.3323
     17 N          23.5870   75.8312    4.8372 N.ar    1  UNL1       -0.2743
     18 C          22.6042   76.7468    4.7173 C.ar    1  UNL1        0.2626
     19 C          21.5885   76.5538    3.7503 C.ar    1  UNL1        0.0795
     20 C          21.6298   75.4572    2.9646 C.ar    1  UNL1        0.0869
     21 O          24.4934   73.9271    4.1619 O.2     1  UNL1       -0.2464
     22 O          22.5906   77.7311    5.4353 O.2     1  UNL1       -0.2670
     23 H          24.2858   75.9564    5.4976 H       1  UNL1        0.1734
     24 O          22.5007   72.1527   -4.4611 O.3     1  UNL1       -0.2703
     25 P          21.6208   72.9484   -5.5500 P.3     1  UNL1        0.2208
     26 O          21.2727   74.4171   -4.9883 O.3     1  UNL1       -0.4371
     27 O          22.3871   73.0713   -6.8093 O.2     1  UNL1       -0.5170
     28 O          20.2550   72.1423   -5.8287 O.3     1  UNL1       -0.2865
     29 C          19.0779   72.7621   -6.3498 C.3     1  UNL1        0.2611
     30 C          17.8422   71.9961   -5.8711 C.3     1  UNL1        0.1582
     31 C          17.8955   70.5659   -6.4170 C.3     1  UNL1        0.1625
     32 C          17.9909   70.6172   -7.9443 C.3     1  UNL1        0.1686
     33 C          19.2212   71.4365   -8.3432 C.3     1  UNL1        0.1760
     34 O          16.7093   69.8652   -6.0359 O.3     1  UNL1       -0.3801
     35 O          16.8152   71.2304   -8.4761 O.3     1  UNL1       -0.3794
     36 O          19.1237   72.7453   -7.7781 O.3     1  UNL1       -0.3263
     37 H          16.6759   68.9505   -6.3480 H       1  UNL1        0.2105
     38 H          16.8077   71.2971   -9.4412 H       1  UNL1        0.2105
     39 C          16.6574   72.0683   -3.7430 C.2     1  UNL1        0.2231
     40 C          16.6392   72.0319   -2.2374 C.3     1  UNL1        0.0946
     41 N          17.8254   71.9609   -4.4065 N.am    1  UNL1       -0.2994
     42 O          15.6199   72.1945   -4.3595 O.2     1  UNL1       -0.2751
     43 H          18.6552   71.8610   -3.9140 H       1  UNL1        0.1496
     44 C          19.2905   71.5427   -9.8678 C.3     1  UNL1        0.1693
     45 O          18.4222   72.5868  -10.3132 O.3     1  UNL1       -0.3794
     46 H          18.4153   72.7111  -11.2721 H       1  UNL1        0.2105
@<TRIPOS>BOND
     1    29    30    1
     2    30    41    1
     3    30    31    1
     4    31    34    1
     5    31    32    1
     6    32    35    1
     7    32    33    1
     8    33    36    1
     9    33    44    1
    10    39    40    1
    11    39    42    2
    12    39    41   am
    13    41    43    1
    14    29    28    1
    15    34    37    1
    16    35    38    1
    17    29    36    1
    18    44    45    1
    19    45    46    1
    20    15     6    1
    21    15    16   ar
    22    16    21    2
    23    16    17   ar
    24    17    23    1
    25    17    18   ar
    26    18    19   ar
    27    19    20   ar
    28    15    20   ar
    29    18    22    2
    30     6     7    1
    31     6    11    1
    32     7     9    1
    33     7     8    1
    34     8    13    1
    35     9    10    1
    36     9    12    1
    37    10     5    1
    38    10    11    1
    39    12    14    1
    40     5     4    1
    41     4     1    1
    42     1     2    1
    43     1    24    1
    44     1     3    2
    45    24    25    1
    46    28    25    1
    47    25    26    1
    48    25    27    2
