@<TRIPOS>MOLECULE
UD1
 46 48 0 0 0
SMALL
GASTEIGER

@<TRIPOS>ATOM
      1 P          21.6726   70.8548   -2.5443 P.3     1  UNL1        0.2189
      2 O          23.1407   70.9989   -2.6558 O.2     1  UNL1       -0.5170
      3 O          21.2638   69.3173   -2.7922 O.3     1  UNL1       -0.4371
      4 O          20.9574   71.7838   -3.6481 O.3     1  UNL1       -0.3112
      5 C          19.9025   72.4800   -2.9825 C.3     1  UNL1        0.1811
      6 C          17.8950   71.3564   -5.7456 C.3     1  UNL1        0.2383
      7 C          17.9754   70.1313   -4.8007 C.3     1  UNL1        0.1895
      8 O          16.7946   69.3339   -4.8960 O.3     1  UNL1       -0.3779
      9 C          18.0793   70.8018   -3.4062 C.3     1  UNL1        0.1713
     10 C          18.5825   72.2258   -3.7120 C.3     1  UNL1        0.1764
     11 O          18.7842   72.3143   -5.1328 O.3     1  UNL1       -0.3308
     12 O          16.7983   70.8420   -2.7737 O.3     1  UNL1       -0.3794
     13 H          16.9081   68.5913   -4.2868 H       1  UNL1        0.2106
     14 H          16.5121   69.9254   -2.6640 H       1  UNL1        0.2105
     15 N          18.3586   71.0076   -7.0890 N.ar    1  UNL1       -0.2551
     16 C          17.4665   70.6561   -8.0313 C.ar    1  UNL1        0.3323
     17 N          17.8641   70.3341   -9.2765 N.ar    1  UNL1       -0.2743
     18 C          19.1736   70.3506   -9.5972 C.ar    1  UNL1        0.2626
     19 C          20.1240   70.7130   -8.6131 C.ar    1  UNL1        0.0795
     20 C          19.6972   71.0365   -7.3736 C.ar    1  UNL1        0.0869
     21 O          16.2819   70.6366   -7.7574 O.2     1  UNL1       -0.2464
     22 O          19.5347   70.0550  -10.7214 O.2     1  UNL1       -0.2670
     23 H          17.2066   70.0876   -9.9451 H       1  UNL1        0.1734
     24 O          21.1990   71.3068   -1.0745 O.3     1  UNL1       -0.2703
     25 P          22.2436   70.6655   -0.0319 P.3     1  UNL1        0.2208
     26 O          23.5110   70.3573   -0.7301 O.2     1  UNL1       -0.5170
     27 O          21.6269   69.3110    0.5822 O.3     1  UNL1       -0.4371
     28 O          22.5271   71.7118    1.1578 O.3     1  UNL1       -0.2865
     29 C          21.7077   72.8552    0.9082 C.3     1  UNL1        0.2611
     30 C          22.5945   74.0326    0.4990 C.3     1  UNL1        0.1582
     31 C          23.5963   74.3198    1.6230 C.3     1  UNL1        0.1625
     32 C          22.8230   74.5101    2.9322 C.3     1  UNL1        0.1686
     33 C          21.9210   73.2951    3.1593 C.3     1  UNL1        0.1760
     34 O          24.3294   75.5079    1.3190 O.3     1  UNL1       -0.3801
     35 O          23.7438   74.6331    4.0177 O.3     1  UNL1       -0.3794
     36 O          20.9819   73.1853    2.0905 O.3     1  UNL1       -0.3263
     37 H          24.9463   75.6503    2.0501 H       1  UNL1        0.2105
     38 H          23.2161   74.7502    4.8204 H       1  UNL1        0.2105
     39 C          23.4388   74.6108   -1.7116 C.2     1  UNL1        0.2231
     40 C          24.1833   74.2650   -2.9759 C.3     1  UNL1        0.0946
     41 N          23.3180   73.6973   -0.7292 N.am    1  UNL1       -0.2994
     42 O          22.9479   75.7115   -1.5789 O.2     1  UNL1       -0.2751
     43 H          23.7106   72.8163   -0.8352 H       1  UNL1        0.1496
     44 C          21.1682   73.4604    4.4811 C.3     1  UNL1        0.1693
     45 O          21.8611   72.7588    5.5153 O.3     1  UNL1       -0.3794
     46 H          21.3548   72.8879    6.3287 H       1  UNL1        0.2105
@<TRIPOS>BOND
     1    29    30    1
     2    29    28    1
     3    29    36    1
     4    30    31    1
     5    30    41    1
     6    31    32    1
     7    31    34    1
     8    32    33    1
     9    32    35    1
    10    33    44    1
    11    33    36    1
    12    44    45    1
    13    39    40    1
    14    39    41   am
    15    39    42    2
    16    41    43    1
    17    28    25    1
    18    34    37    1
    19    35    38    1
    20    45    46    1
    21    15    16   ar
    22    15    20   ar
    23    15     6    1
    24    16    17   ar
    25    16    21    2
    26    17    18   ar
    27    17    23    1
    28    18    19   ar
    29    18    22    2
    30    19    20   ar
    31     6     7    1
    32     6    11    1
    33     7     8    1
    34     7     9    1
    35     8    13    1
    36     9    10    1
    37     9    12    1
    38    10    11    1
    39    10     5    1
    40    12    14    1
    41     5     4    1
    42     4     1    1
    43     1     2    2
    44     1     3    1
    45     1    24    1
    46    24    25    1
    47    25    26    2
    48    25    27    1
@<TRIPOS>MOLECULE
UD1
 46 48 0 0 0
SMALL
GASTEIGER

@<TRIPOS>ATOM
      1 P          22.7937   71.9608   -3.1238 P.3     1  UNL1        0.2189
      2 O          23.0380   70.5070   -3.2491 O.2     1  UNL1       -0.5170
      3 O          22.8415   72.3811   -1.5702 O.3     1  UNL1       -0.4371
      4 O          21.3448   72.3151   -3.7302 O.3     1  UNL1       -0.3112
      5 C          20.3889   72.0436   -2.7041 C.3     1  UNL1        0.1811
      6 C          18.0525   71.3011   -5.3341 C.3     1  UNL1        0.2383
      7 C          18.1151   70.0020   -4.4923 C.3     1  UNL1        0.1895
      8 O          16.8679   69.3076   -4.5304 O.3     1  UNL1       -0.3779
      9 C          18.4006   70.5493   -3.0696 C.3     1  UNL1        0.1713
     10 C          18.9917   71.9503   -3.3191 C.3     1  UNL1        0.1764
     11 O          19.0706   72.1360   -4.7426 O.3     1  UNL1       -0.3308
     12 O          17.1900   70.6370   -2.3150 O.3     1  UNL1       -0.3794
     13 H          16.9734   68.5123   -3.9901 H       1  UNL1        0.2106
     14 H          16.8391   69.7392   -2.2447 H       1  UNL1        0.2105
     15 N          18.3617   71.0260   -6.7377 N.ar    1  UNL1       -0.2551
     16 C          17.3669   70.7396   -7.5954 C.ar    1  UNL1        0.3323
     17 N          17.6216   70.4863   -8.8928 N.ar    1  UNL1       -0.2743
     18 C          18.8888   70.5070   -9.3531 C.ar    1  UNL1        0.2626
     19 C          19.9463   70.8011   -8.4597 C.ar    1  UNL1        0.0795
     20 C          19.6620   71.0567   -7.1646 C.ar    1  UNL1        0.0869
     21 O          16.2188   70.7172   -7.1954 O.2     1  UNL1       -0.2464
     22 O          19.1207   70.2734  -10.5248 O.2     1  UNL1       -0.2670
     23 H          16.8914   70.2862   -9.4984 H       1  UNL1        0.1734
     24 O          23.9262   72.7671   -3.9339 O.3     1  UNL1       -0.2703
     25 P          23.4618   74.3073   -3.9734 P.3     1  UNL1        0.2208
     26 O          24.6398   75.1717   -4.2057 O.2     1  UNL1       -0.5170
     27 O          22.7784   74.6987   -2.5691 O.3     1  UNL1       -0.4371
     28 O          22.3986   74.5182   -5.1632 O.3     1  UNL1       -0.2865
     29 C          22.8853   75.5935   -5.9682 C.3     1  UNL1        0.2611
     30 C          21.8025   76.6678   -6.0841 C.3     1  UNL1        0.1582
     31 C          20.5472   76.0489   -6.7093 C.3     1  UNL1        0.1625
     32 C          20.9386   75.3728   -8.0276 C.3     1  UNL1        0.1686
     33 C          22.0847   74.3937   -7.7644 C.3     1  UNL1        0.1760
     34 O          19.5828   77.0728   -6.9604 O.3     1  UNL1       -0.3801
     35 O          19.8146   74.6647   -8.5537 O.3     1  UNL1       -0.3794
     36 O          23.2185   75.1017   -7.2646 O.3     1  UNL1       -0.3263
     37 H          18.8116   76.6402   -7.3521 H       1  UNL1        0.2105
     38 H          20.1046   74.2546   -9.3809 H       1  UNL1        0.2105
     39 C          22.2463   78.1502   -4.2027 C.2     1  UNL1        0.2231
     40 C          21.9169   78.6835   -2.8318 C.3     1  UNL1        0.0946
     41 N          21.4826   77.1866   -4.7526 N.am    1  UNL1       -0.2994
     42 O          23.1997   78.5881   -4.8106 O.2     1  UNL1       -0.2751
     43 H          20.7198   76.8358   -4.2662 H       1  UNL1        0.1496
     44 C          22.4616   73.6890   -9.0692 C.3     1  UNL1        0.1693
     45 O          23.8790   73.7368   -9.2447 O.3     1  UNL1       -0.3794
     46 H          24.0734   73.2834  -10.0761 H       1  UNL1        0.2105
@<TRIPOS>BOND
     1    29    30    1
     2    29    28    1
     3    29    36    1
     4    30    31    1
     5    30    41    1
     6    31    32    1
     7    31    34    1
     8    32    33    1
     9    32    35    1
    10    33    44    1
    11    33    36    1
    12    44    45    1
    13    39    40    1
    14    39    41   am
    15    39    42    2
    16    41    43    1
    17    28    25    1
    18    34    37    1
    19    35    38    1
    20    45    46    1
    21    15    16   ar
    22    15    20   ar
    23    15     6    1
    24    16    17   ar
    25    16    21    2
    26    17    18   ar
    27    17    23    1
    28    18    19   ar
    29    18    22    2
    30    19    20   ar
    31     6     7    1
    32     6    11    1
    33     7     8    1
    34     7     9    1
    35     8    13    1
    36     9    10    1
    37     9    12    1
    38    10    11    1
    39    10     5    1
    40    12    14    1
    41     5     4    1
    42     4     1    1
    43     1     2    2
    44     1     3    1
    45     1    24    1
    46    24    25    1
    47    25    26    2
    48    25    27    1
@<TRIPOS>MOLECULE
UD1
 46 48 0 0 0
SMALL
GASTEIGER

@<TRIPOS>ATOM
      1 P          23.0040   72.2122   -3.0675 P.3     1  UNL1        0.2189
      2 O          23.8100   72.9838   -4.0390 O.2     1  UNL1       -0.5170
      3 O          23.1655   70.6383   -3.3663 O.3     1  UNL1       -0.4371
      4 O          21.4545   72.6275   -3.2068 O.3     1  UNL1       -0.3112
      5 C          20.6851   71.5182   -2.7401 C.3     1  UNL1        0.1811
      6 C          18.2036   71.1422   -5.3147 C.3     1  UNL1        0.2383
      7 C          18.1473   69.8111   -4.5239 C.3     1  UNL1        0.1895
      8 O          16.8303   69.2594   -4.5450 O.3     1  UNL1       -0.3779
      9 C          18.5338   70.2662   -3.0925 C.3     1  UNL1        0.1713
     10 C          19.2684   71.6031   -3.3102 C.3     1  UNL1        0.1764
     11 O          19.3249   71.8363   -4.7279 O.3     1  UNL1       -0.3308
     12 O          17.3632   70.4552   -2.2945 O.3     1  UNL1       -0.3794
     13 H          16.8633   68.4362   -4.0383 H       1  UNL1        0.2106
     14 H          16.9175   69.5990   -2.2453 H       1  UNL1        0.2105
     15 N          18.4386   70.8918   -6.7372 N.ar    1  UNL1       -0.2551
     16 C          17.3932   70.7293   -7.5667 C.ar    1  UNL1        0.3323
     17 N          17.5796   70.5016   -8.8803 N.ar    1  UNL1       -0.2743
     18 C          18.8270   70.4233   -9.3861 C.ar    1  UNL1        0.2626
     19 C          19.9366   70.5865   -8.5230 C.ar    1  UNL1        0.0795
     20 C          19.7210   70.8192   -7.2105 C.ar    1  UNL1        0.0869
     21 O          16.2621   70.7972   -7.1255 O.2     1  UNL1       -0.2464
     22 O          18.9967   70.2127  -10.5728 O.2     1  UNL1       -0.2670
     23 H          16.8139   70.3915   -9.4650 H       1  UNL1        0.1734
     24 O          23.5127   72.5311   -1.5748 O.3     1  UNL1       -0.2703
     25 P          23.1098   74.0573   -1.2624 P.3     1  UNL1        0.2208
     26 O          22.5004   74.6628   -2.4669 O.2     1  UNL1       -0.5170
     27 O          24.4269   74.8878   -0.8530 O.3     1  UNL1       -0.4371
     28 O          22.0533   74.0971   -0.0488 O.3     1  UNL1       -0.2865
     29 C          22.8077   74.2710    1.1519 C.3     1  UNL1        0.2611
     30 C          22.4909   73.1275    2.1174 C.3     1  UNL1        0.1582
     31 C          20.9879   73.1272    2.4180 C.3     1  UNL1        0.1625
     32 C          20.5853   74.5229    2.9058 C.3     1  UNL1        0.1686
     33 C          21.0432   75.5610    1.8792 C.3     1  UNL1        0.1760
     34 O          20.7024   72.1613    3.4314 O.3     1  UNL1       -0.3801
     35 O          19.1653   74.5871    3.0517 O.3     1  UNL1       -0.3794
     36 O          22.4639   75.5184    1.7512 O.3     1  UNL1       -0.3263
     37 H          19.7487   72.1947    3.5885 H       1  UNL1        0.2105
     38 H          18.9558   75.4805    3.3589 H       1  UNL1        0.2105
     39 C          21.9509   71.1219    0.8446 C.2     1  UNL1        0.2231
     40 C          22.3409   69.8082    0.2165 C.3     1  UNL1        0.0946
     41 N          22.8694   71.8516    1.5067 N.am    1  UNL1       -0.2994
     42 O          20.8099   71.5219    0.7545 O.2     1  UNL1       -0.2751
     43 H          23.7825   71.5315    1.5791 H       1  UNL1        0.1496
     44 C          20.6171   76.9560    2.3413 C.3     1  UNL1        0.1693
     45 O          19.3104   77.2457    1.8407 O.3     1  UNL1       -0.3794
     46 H          19.0808   78.1311    2.1536 H       1  UNL1        0.2105
@<TRIPOS>BOND
     1    29    30    1
     2    29    28    1
     3    29    36    1
     4    30    31    1
     5    30    41    1
     6    31    32    1
     7    31    34    1
     8    32    33    1
     9    32    35    1
    10    33    44    1
    11    33    36    1
    12    44    45    1
    13    39    40    1
    14    39    41   am
    15    39    42    2
    16    41    43    1
    17    28    25    1
    18    34    37    1
    19    35    38    1
    20    45    46    1
    21    15    16   ar
    22    15    20   ar
    23    15     6    1
    24    16    17   ar
    25    16    21    2
    26    17    18   ar
    27    17    23    1
    28    18    19   ar
    29    18    22    2
    30    19    20   ar
    31     6     7    1
    32     6    11    1
    33     7     8    1
    34     7     9    1
    35     8    13    1
    36     9    10    1
    37     9    12    1
    38    10    11    1
    39    10     5    1
    40    12    14    1
    41     5     4    1
    42     4     1    1
    43     1     2    2
    44     1     3    1
    45     1    24    1
    46    24    25    1
    47    25    26    2
    48    25    27    1
@<TRIPOS>MOLECULE
UD1
 46 48 0 0 0
SMALL
GASTEIGER

@<TRIPOS>ATOM
      1 P          22.5316   71.5342   -2.5979 P.3     1  UNL1        0.2189
      2 O          23.4680   70.6591   -3.3370 O.2     1  UNL1       -0.5170
      3 O          22.1240   70.8313   -1.2078 O.3     1  UNL1       -0.4371
      4 O          21.2091   71.7744   -3.4846 O.3     1  UNL1       -0.3112
      5 C          20.2061   72.2813   -2.6029 C.3     1  UNL1        0.1811
      6 C          17.9654   71.3852   -5.2682 C.3     1  UNL1        0.2383
      7 C          18.0564   70.1105   -4.3924 C.3     1  UNL1        0.1895
      8 O          16.8377   69.3679   -4.4425 O.3     1  UNL1       -0.3779
      9 C          18.2856   70.7030   -2.9776 C.3     1  UNL1        0.1713
     10 C          18.8291   72.1193   -3.2485 C.3     1  UNL1        0.1764
     11 O          18.9362   72.2730   -4.6740 O.3     1  UNL1       -0.3308
     12 O          17.0541   70.7626   -2.2546 O.3     1  UNL1       -0.3794
     13 H          16.9598   68.5907   -3.8798 H       1  UNL1        0.2106
     14 H          16.7359   69.8539   -2.1699 H       1  UNL1        0.2105
     15 N          18.3196   71.0879   -6.6565 N.ar    1  UNL1       -0.2551
     16 C          17.3546   70.7697   -7.5368 C.ar    1  UNL1        0.3323
     17 N          17.6509   70.4954   -8.8210 N.ar    1  UNL1       -0.2743
     18 C          18.9305   70.5269   -9.2448 C.ar    1  UNL1        0.2626
     19 C          19.9569   70.8545   -8.3272 C.ar    1  UNL1        0.0795
     20 C          19.6311   71.1305   -7.0462 C.ar    1  UNL1        0.0869
     21 O          16.1958   70.7373   -7.1698 O.2     1  UNL1       -0.2464
     22 O          19.2000   70.2744  -10.4046 O.2     1  UNL1       -0.2670
     23 H          16.9416   70.2725   -9.4435 H       1  UNL1        0.1734
     24 O          23.2405   72.9471   -2.2983 O.3     1  UNL1       -0.2703
     25 P          23.4708   73.6626   -3.7211 P.3     1  UNL1        0.2208
     26 O          22.5497   74.8133   -3.8493 O.2     1  UNL1       -0.5170
     27 O          23.1817   72.6103   -4.9048 O.3     1  UNL1       -0.4371
     28 O          24.9918   74.1789   -3.8237 O.3     1  UNL1       -0.2865
     29 C          24.9812   75.5684   -3.4917 C.3     1  UNL1        0.2611
     30 C          25.4142   76.3826   -4.7122 C.3     1  UNL1        0.1582
     31 C          26.8181   75.9388   -5.1384 C.3     1  UNL1        0.1625
     32 C          27.7512   76.0340   -3.9266 C.3     1  UNL1        0.1686
     33 C          27.1433   75.2435   -2.7662 C.3     1  UNL1        0.1760
     34 O          27.2938   76.7916   -6.1814 O.3     1  UNL1       -0.3801
     35 O          29.0279   75.4872   -4.2624 O.3     1  UNL1       -0.3794
     36 O          25.8802   75.8042   -2.4102 O.3     1  UNL1       -0.3263
     37 H          28.1771   76.4770   -6.4184 H       1  UNL1        0.2105
     38 H          29.5824   75.5663   -3.4732 H       1  UNL1        0.2105
     39 C          24.0813   77.1852   -6.5866 C.2     1  UNL1        0.2231
     40 C          23.1123   76.9515   -7.7175 C.3     1  UNL1        0.0946
     41 N          24.4733   76.1560   -5.8112 N.am    1  UNL1       -0.2994
     42 O          24.5077   78.3002   -6.3743 O.2     1  UNL1       -0.2751
     43 H          24.1320   75.2636   -5.9808 H       1  UNL1        0.1496
     44 C          28.0835   75.3052   -1.5607 C.3     1  UNL1        0.1693
     45 O          29.1661   74.3925   -1.7531 O.3     1  UNL1       -0.3794
     46 H          29.7330   74.4623   -0.9732 H       1  UNL1        0.2105
@<TRIPOS>BOND
     1    29    30    1
     2    29    28    1
     3    29    36    1
     4    30    31    1
     5    30    41    1
     6    31    32    1
     7    31    34    1
     8    32    33    1
     9    32    35    1
    10    33    44    1
    11    33    36    1
    12    44    45    1
    13    39    40    1
    14    39    41   am
    15    39    42    2
    16    41    43    1
    17    28    25    1
    18    34    37    1
    19    35    38    1
    20    45    46    1
    21    15    16   ar
    22    15    20   ar
    23    15     6    1
    24    16    17   ar
    25    16    21    2
    26    17    18   ar
    27    17    23    1
    28    18    19   ar
    29    18    22    2
    30    19    20   ar
    31     6     7    1
    32     6    11    1
    33     7     8    1
    34     7     9    1
    35     8    13    1
    36     9    10    1
    37     9    12    1
    38    10    11    1
    39    10     5    1
    40    12    14    1
    41     5     4    1
    42     4     1    1
    43     1     2    2
    44     1     3    1
    45     1    24    1
    46    24    25    1
    47    25    26    2
    48    25    27    1
@<TRIPOS>MOLECULE
UD1
 46 48 0 0 0
SMALL
GASTEIGER

@<TRIPOS>ATOM
      1 P          23.0480   73.9274   -3.9538 P.3     1  UNL1        0.2189
      2 O          24.1431   72.9329   -3.9750 O.2     1  UNL1       -0.5170
      3 O          23.3048   75.0328   -5.0960 O.3     1  UNL1       -0.4371
      4 O          23.0041   74.6458   -2.5134 O.3     1  UNL1       -0.3112
      5 C          22.1100   73.8859   -1.6989 C.3     1  UNL1        0.1811
      6 C          22.9926   72.3203    1.4151 C.3     1  UNL1        0.2383
      7 C          21.9403   71.3717    0.7883 C.3     1  UNL1        0.1895
      8 O          22.1792   70.0174    1.1732 O.3     1  UNL1       -0.3779
      9 C          22.1887   71.5675   -0.7300 C.3     1  UNL1        0.1713
     10 C          22.9115   72.9254   -0.8190 C.3     1  UNL1        0.1764
     11 O          23.0068   73.4498    0.5164 O.3     1  UNL1       -0.3308
     12 O          23.0149   70.5192   -1.2411 O.3     1  UNL1       -0.3794
     13 H          21.4930   69.4813    0.7523 H       1  UNL1        0.2106
     14 H          22.5343   69.6922   -1.1027 H       1  UNL1        0.2105
     15 N          22.5843   72.7342    2.7580 N.ar    1  UNL1       -0.2551
     16 C          21.3040   72.5861    3.1404 C.ar    1  UNL1        0.3323
     17 N          20.9011   72.9545    4.3709 N.ar    1  UNL1       -0.2743
     18 C          21.7801   73.4902    5.2417 C.ar    1  UNL1        0.2626
     19 C          23.1297   73.6573    4.8501 C.ar    1  UNL1        0.0795
     20 C          23.5080   73.2743    3.6117 C.ar    1  UNL1        0.0869
     21 O          20.4994   72.1044    2.3663 O.2     1  UNL1       -0.2464
     22 O          21.4159   73.8280    6.3528 O.2     1  UNL1       -0.2670
     23 H          19.9747   72.8360    4.6316 H       1  UNL1        0.1734
     24 O          21.6456   73.1875   -4.2272 O.3     1  UNL1       -0.2703
     25 P          21.3567   73.3076   -5.8056 P.3     1  UNL1        0.2208
     26 O          22.5358   72.8294   -6.5606 O.2     1  UNL1       -0.5170
     27 O          21.0661   74.8455   -6.1833 O.3     1  UNL1       -0.4371
     28 O          20.0755   72.4114   -6.1876 O.3     1  UNL1       -0.2865
     29 C          19.4155   73.0715   -7.2691 C.3     1  UNL1        0.2611
     30 C          17.9428   73.2788   -6.9111 C.3     1  UNL1        0.1582
     31 C          17.2976   71.9162   -6.6343 C.3     1  UNL1        0.1625
     32 C          17.5539   70.9996   -7.8353 C.3     1  UNL1        0.1686
     33 C          19.0565   70.9619   -8.1217 C.3     1  UNL1        0.1760
     34 O          15.8911   72.0818   -6.4457 O.3     1  UNL1       -0.3801
     35 O          17.0893   69.6815   -7.5382 O.3     1  UNL1       -0.3794
     36 O          19.5186   72.2726   -8.4457 O.3     1  UNL1       -0.3263
     37 H          15.5267   71.2025   -6.2745 H       1  UNL1        0.2105
     38 H          17.2704   69.1385   -8.3185 H       1  UNL1        0.2105
     39 C          17.7258   73.5545   -4.5004 C.2     1  UNL1        0.2231
     40 C          17.6223   74.4214   -3.2716 C.3     1  UNL1        0.0946
     41 N          17.8427   74.1206   -5.7170 N.am    1  UNL1       -0.2994
     42 O          17.7031   72.3468   -4.3941 O.2     1  UNL1       -0.2751
     43 H          17.8606   75.0870   -5.8024 H       1  UNL1        0.1496
     44 C          19.3265   70.0232   -9.2995 C.3     1  UNL1        0.1693
     45 O          18.2142   70.0514  -10.1962 O.3     1  UNL1       -0.3794
     46 H          18.4244   69.4480  -10.9218 H       1  UNL1        0.2105
@<TRIPOS>BOND
     1    29    30    1
     2    29    28    1
     3    29    36    1
     4    30    31    1
     5    30    41    1
     6    31    32    1
     7    31    34    1
     8    32    33    1
     9    32    35    1
    10    33    44    1
    11    33    36    1
    12    44    45    1
    13    39    40    1
    14    39    41   am
    15    39    42    2
    16    41    43    1
    17    28    25    1
    18    34    37    1
    19    35    38    1
    20    45    46    1
    21    15    16   ar
    22    15    20   ar
    23    15     6    1
    24    16    17   ar
    25    16    21    2
    26    17    18   ar
    27    17    23    1
    28    18    19   ar
    29    18    22    2
    30    19    20   ar
    31     6     7    1
    32     6    11    1
    33     7     8    1
    34     7     9    1
    35     8    13    1
    36     9    10    1
    37     9    12    1
    38    10    11    1
    39    10     5    1
    40    12    14    1
    41     5     4    1
    42     4     1    1
    43     1     2    2
    44     1     3    1
    45     1    24    1
    46    24    25    1
    47    25    26    2
    48    25    27    1
@<TRIPOS>MOLECULE
UD1
 46 48 0 0 0
SMALL
GASTEIGER

@<TRIPOS>ATOM
      1 P          22.0514   73.9890   -6.7443 P.3     1  UNL1        0.2189
      2 O          23.0583   75.0721   -6.7854 O.2     1  UNL1       -0.5170
      3 O          22.7736   72.5744   -7.0084 O.3     1  UNL1       -0.4371
      4 O          20.9419   74.2449   -7.8829 O.3     1  UNL1       -0.3112
      5 C          21.1029   73.2126   -8.8570 C.3     1  UNL1        0.1811
      6 C          18.4723   71.1704   -7.5018 C.3     1  UNL1        0.2383
      7 C          17.9146   72.6143   -7.4382 C.3     1  UNL1        0.1895
      8 O          16.4939   72.6204   -7.5823 O.3     1  UNL1       -0.3779
      9 C          18.5976   73.2813   -8.6604 C.3     1  UNL1        0.1713
     10 C          19.8193   72.3853   -8.9417 C.3     1  UNL1        0.1764
     11 O          19.8353   71.3539   -7.9402 O.3     1  UNL1       -0.3308
     12 O          17.7117   73.2969   -9.7819 O.3     1  UNL1       -0.3794
     13 H          16.2113   73.5441   -7.5335 H       1  UNL1        0.2106
     14 H          16.9427   73.8220   -9.5229 H       1  UNL1        0.2105
     15 N          18.4352   70.5406   -6.1814 N.ar    1  UNL1       -0.2551
     16 C          17.3433   69.8548   -5.8008 C.ar    1  UNL1        0.3323
     17 N          17.2830   69.2620   -4.5937 N.ar    1  UNL1       -0.2743
     18 C          18.3209   69.3556   -3.7381 C.ar    1  UNL1        0.2626
     19 C          19.4742   70.0796   -4.1237 C.ar    1  UNL1        0.0795
     20 C          19.5102   70.6598   -5.3424 C.ar    1  UNL1        0.0869
     21 O          16.3992   69.7614   -6.5614 O.2     1  UNL1       -0.2464
     22 O          18.2656   68.8240   -2.6446 O.2     1  UNL1       -0.2670
     23 H          16.4894   68.7673   -4.3375 H       1  UNL1        0.1734
     24 O          21.3429   73.9695   -5.2998 O.3     1  UNL1       -0.2703
     25 P          22.4975   73.6704   -4.2197 P.3     1  UNL1        0.2208
     26 O          23.6075   74.6307   -4.4057 O.2     1  UNL1       -0.5170
     27 O          23.0469   72.1706   -4.4217 O.3     1  UNL1       -0.4371
     28 O          21.8976   73.8250   -2.7342 O.3     1  UNL1       -0.2865
     29 C          21.0300   72.7105   -2.5195 C.3     1  UNL1        0.2611
     30 C          19.6491   73.2187   -2.1012 C.3     1  UNL1        0.1582
     31 C          19.7877   74.0508   -0.8215 C.3     1  UNL1        0.1625
     32 C          20.5204   73.2125    0.2314 C.3     1  UNL1        0.1686
     33 C          21.8372   72.7072   -0.3620 C.3     1  UNL1        0.1760
     34 O          18.4908   74.4056   -0.3382 O.3     1  UNL1       -0.3801
     35 O          20.7902   74.0177    1.3804 O.3     1  UNL1       -0.3794
     36 O          21.5701   71.8801   -1.4938 O.3     1  UNL1       -0.3263
     37 H          18.6251   74.9270    0.4652 H       1  UNL1        0.2105
     38 H          21.2517   73.4525    2.0161 H       1  UNL1        0.2105
     39 C          17.7994   73.9056   -3.5299 C.2     1  UNL1        0.2231
     40 C          17.2235   74.7613   -4.6292 C.3     1  UNL1        0.0946
     41 N          19.0890   74.0500   -3.1687 N.am    1  UNL1       -0.2994
     42 O          17.1020   73.0864   -2.9708 O.2     1  UNL1       -0.2751
     43 H          19.6474   74.7054   -3.6162 H       1  UNL1        0.1496
     44 C          22.5922   71.8955    0.6926 C.3     1  UNL1        0.1693
     45 O          21.6679   71.0872    1.4237 O.3     1  UNL1       -0.3794
     46 H          22.1831   70.5936    2.0762 H       1  UNL1        0.2105
@<TRIPOS>BOND
     1    29    30    1
     2    29    28    1
     3    29    36    1
     4    30    31    1
     5    30    41    1
     6    31    32    1
     7    31    34    1
     8    32    33    1
     9    32    35    1
    10    33    44    1
    11    33    36    1
    12    44    45    1
    13    39    40    1
    14    39    41   am
    15    39    42    2
    16    41    43    1
    17    28    25    1
    18    34    37    1
    19    35    38    1
    20    45    46    1
    21    15    16   ar
    22    15    20   ar
    23    15     6    1
    24    16    17   ar
    25    16    21    2
    26    17    18   ar
    27    17    23    1
    28    18    19   ar
    29    18    22    2
    30    19    20   ar
    31     6     7    1
    32     6    11    1
    33     7     8    1
    34     7     9    1
    35     8    13    1
    36     9    10    1
    37     9    12    1
    38    10    11    1
    39    10     5    1
    40    12    14    1
    41     5     4    1
    42     4     1    1
    43     1     2    2
    44     1     3    1
    45     1    24    1
    46    24    25    1
    47    25    26    2
    48    25    27    1
@<TRIPOS>MOLECULE
UD1
 46 48 0 0 0
SMALL
GASTEIGER

@<TRIPOS>ATOM
      1 P          21.9847   70.4371   -0.2993 P.3     1  UNL1        0.2189
      2 O          22.9176   69.3745    0.1360 O.2     1  UNL1       -0.5170
      3 O          21.2937   71.1066    0.9917 O.3     1  UNL1       -0.4371
      4 O          20.8483   69.7985   -1.2445 O.3     1  UNL1       -0.3112
      5 C          21.0169   70.3738   -2.5410 C.3     1  UNL1        0.1811
      6 C          18.4908   70.9771   -5.0274 C.3     1  UNL1        0.2383
      7 C          18.0665   69.6459   -4.3580 C.3     1  UNL1        0.1895
      8 O          16.6463   69.4972   -4.3709 O.3     1  UNL1       -0.3779
      9 C          18.5908   69.8280   -2.9099 C.3     1  UNL1        0.1713
     10 C          19.6755   70.9149   -3.0383 C.3     1  UNL1        0.1764
     11 O          19.7738   71.2613   -4.4303 O.3     1  UNL1       -0.3308
     12 O          17.5374   70.2629   -2.0474 O.3     1  UNL1       -0.3794
     13 H          16.4492   68.6528   -3.9423 H       1  UNL1        0.2106
     14 H          16.8649   69.5687   -2.0560 H       1  UNL1        0.2105
     15 N          18.6206   70.8121   -6.4756 N.ar    1  UNL1       -0.2551
     16 C          17.5205   70.8198   -7.2483 C.ar    1  UNL1        0.3323
     17 N          17.6104   70.6741   -8.5836 N.ar    1  UNL1       -0.2743
     18 C          18.8133   70.5077   -9.1695 C.ar    1  UNL1        0.2626
     19 C          19.9790   70.4916   -8.3673 C.ar    1  UNL1        0.0795
     20 C          19.8606   70.6453   -7.0310 C.ar    1  UNL1        0.0869
     21 O          16.4285   70.9690   -6.7347 O.2     1  UNL1       -0.2464
     22 O          18.8953   70.3710  -10.3762 O.2     1  UNL1       -0.2670
     23 H          16.8069   70.6869   -9.1262 H       1  UNL1        0.1734
     24 O          22.7950   71.5601   -1.1184 O.3     1  UNL1       -0.2703
     25 P          22.2650   72.9878   -0.5985 P.3     1  UNL1        0.2208
     26 O          20.7987   72.9306   -0.4100 O.2     1  UNL1       -0.5170
     27 O          22.6219   74.1215   -1.6846 O.3     1  UNL1       -0.4371
     28 O          22.9725   73.3467    0.8019 O.3     1  UNL1       -0.2865
     29 C          22.5147   74.6473    1.1762 C.3     1  UNL1        0.2611
     30 C          23.7205   75.5579    1.4145 C.3     1  UNL1        0.1582
     31 C          24.5947   74.9533    2.5190 C.3     1  UNL1        0.1625
     32 C          23.7197   74.6945    3.7500 C.3     1  UNL1        0.1686
     33 C          22.5153   73.8463    3.3360 C.3     1  UNL1        0.1760
     34 O          25.6414   75.8661    2.8547 O.3     1  UNL1       -0.3801
     35 O          24.4799   73.9972    4.7387 O.3     1  UNL1       -0.3794
     36 O          21.7386   74.5515    2.3686 O.3     1  UNL1       -0.3263
     37 H          26.1654   75.4464    3.5509 H       1  UNL1        0.2105
     38 H          23.8922   73.8544    5.4942 H       1  UNL1        0.2105
     39 C          24.7190   76.8825   -0.3695 C.2     1  UNL1        0.2231
     40 C          25.5205   76.9999   -1.6408 C.3     1  UNL1        0.0946
     41 N          24.4995   75.6725    0.1798 N.am    1  UNL1       -0.2994
     42 O          24.2708   77.8777    0.1587 O.2     1  UNL1       -0.2751
     43 H          24.8579   74.8759   -0.2428 H       1  UNL1        0.1496
     44 C          21.6518   73.5547    4.5650 C.3     1  UNL1        0.1693
     45 O          22.0256   72.2928    5.1218 O.3     1  UNL1       -0.3794
     46 H          21.4589   72.1477    5.8915 H       1  UNL1        0.2105
@<TRIPOS>BOND
     1    29    30    1
     2    29    28    1
     3    29    36    1
     4    30    31    1
     5    30    41    1
     6    31    32    1
     7    31    34    1
     8    32    33    1
     9    32    35    1
    10    33    44    1
    11    33    36    1
    12    44    45    1
    13    39    40    1
    14    39    41   am
    15    39    42    2
    16    41    43    1
    17    28    25    1
    18    34    37    1
    19    35    38    1
    20    45    46    1
    21    15    16   ar
    22    15    20   ar
    23    15     6    1
    24    16    17   ar
    25    16    21    2
    26    17    18   ar
    27    17    23    1
    28    18    19   ar
    29    18    22    2
    30    19    20   ar
    31     6     7    1
    32     6    11    1
    33     7     8    1
    34     7     9    1
    35     8    13    1
    36     9    10    1
    37     9    12    1
    38    10    11    1
    39    10     5    1
    40    12    14    1
    41     5     4    1
    42     4     1    1
    43     1     2    2
    44     1     3    1
    45     1    24    1
    46    24    25    1
    47    25    26    2
    48    25    27    1
@<TRIPOS>MOLECULE
UD1
 46 48 0 0 0
SMALL
GASTEIGER

@<TRIPOS>ATOM
      1 P          21.8428   70.4805   -0.2642 P.3     1  UNL1        0.2189
      2 O          22.8099   71.4317   -0.8547 O.2     1  UNL1       -0.5170
      3 O          22.6375   69.2334    0.3728 O.3     1  UNL1       -0.4371
      4 O          20.8443   69.9501   -1.4107 O.3     1  UNL1       -0.3112
      5 C          20.9624   70.8519   -2.5121 C.3     1  UNL1        0.1811
      6 C          18.4134   71.0575   -5.0394 C.3     1  UNL1        0.2383
      7 C          18.1552   69.7010   -4.3371 C.3     1  UNL1        0.1895
      8 O          16.7663   69.3698   -4.3598 O.3     1  UNL1       -0.3779
      9 C          18.6321   69.9877   -2.8895 C.3     1  UNL1        0.1713
     10 C          19.5694   71.2018   -3.0378 C.3     1  UNL1        0.1764
     11 O          19.6410   71.5208   -4.4379 O.3     1  UNL1       -0.3308
     12 O          17.5199   70.3058   -2.0501 O.3     1  UNL1       -0.3794
     13 H          16.6737   68.5188   -3.9096 H       1  UNL1        0.2106
     14 H          16.9426   69.5307   -2.0458 H       1  UNL1        0.2105
     15 N          18.5829   70.8721   -6.4811 N.ar    1  UNL1       -0.2551
     16 C          17.5003   70.7692   -7.2715 C.ar    1  UNL1        0.3323
     17 N          17.6263   70.6022   -8.6013 N.ar    1  UNL1       -0.2743
     18 C          18.8494   70.5256   -9.1636 C.ar    1  UNL1        0.2626
     19 C          19.9976   70.6263   -8.3424 C.ar    1  UNL1        0.0795
     20 C          19.8424   70.7990   -7.0122 C.ar    1  UNL1        0.0869
     21 O          16.3905   70.8365   -6.7791 O.2     1  UNL1       -0.2464
     22 O          18.9645   70.3697  -10.3652 O.2     1  UNL1       -0.2670
     23 H          16.8345   70.5347   -9.1569 H       1  UNL1        0.1734
     24 O          20.9948   71.2213    0.8851 O.3     1  UNL1       -0.2703
     25 P          22.0586   71.9047    1.8803 P.3     1  UNL1        0.2208
     26 O          22.7264   73.0305    1.1908 O.2     1  UNL1       -0.5170
     27 O          23.1603   70.8158    2.3193 O.3     1  UNL1       -0.4371
     28 O          21.2969   72.4525    3.1881 O.3     1  UNL1       -0.2865
     29 C          21.4024   73.8771    3.1629 C.3     1  UNL1        0.2611
     30 C          22.1617   74.3493    4.4041 C.3     1  UNL1        0.1582
     31 C          21.4119   73.8842    5.6575 C.3     1  UNL1        0.1625
     32 C          19.9578   74.3586    5.5630 C.3     1  UNL1        0.1686
     33 C          19.3638   73.8830    4.2355 C.3     1  UNL1        0.1760
     34 O          22.0272   74.4443    6.8190 O.3     1  UNL1       -0.3801
     35 O          19.2054   73.8123    6.6479 O.3     1  UNL1       -0.3794
     36 O          20.0961   74.4489    3.1493 O.3     1  UNL1       -0.3263
     37 H          21.5251   74.1264    7.5820 H       1  UNL1        0.2105
     38 H          18.2983   74.1347    6.5496 H       1  UNL1        0.2105
     39 C          24.5567   74.5184    4.8158 C.2     1  UNL1        0.2231
     40 C          25.9451   73.9312    4.8105 C.3     1  UNL1        0.0946
     41 N          23.5105   73.7791    4.3996 N.am    1  UNL1       -0.2994
     42 O          24.3814   75.6569    5.1943 O.2     1  UNL1       -0.2751
     43 H          23.6506   72.8681    4.0964 H       1  UNL1        0.1496
     44 C          17.9013   74.3239    4.1456 C.3     1  UNL1        0.1693
     45 O          17.8337   75.7513    4.1330 O.3     1  UNL1       -0.3794
     46 H          16.8977   75.9865    4.0760 H       1  UNL1        0.2105
@<TRIPOS>BOND
     1    29    30    1
     2    29    28    1
     3    29    36    1
     4    30    31    1
     5    30    41    1
     6    31    32    1
     7    31    34    1
     8    32    33    1
     9    32    35    1
    10    33    44    1
    11    33    36    1
    12    44    45    1
    13    39    40    1
    14    39    41   am
    15    39    42    2
    16    41    43    1
    17    28    25    1
    18    34    37    1
    19    35    38    1
    20    45    46    1
    21    15    16   ar
    22    15    20   ar
    23    15     6    1
    24    16    17   ar
    25    16    21    2
    26    17    18   ar
    27    17    23    1
    28    18    19   ar
    29    18    22    2
    30    19    20   ar
    31     6     7    1
    32     6    11    1
    33     7     8    1
    34     7     9    1
    35     8    13    1
    36     9    10    1
    37     9    12    1
    38    10    11    1
    39    10     5    1
    40    12    14    1
    41     5     4    1
    42     4     1    1
    43     1     2    2
    44     1     3    1
    45     1    24    1
    46    24    25    1
    47    25    26    2
    48    25    27    1
@<TRIPOS>MOLECULE
UD1
 46 48 0 0 0
SMALL
GASTEIGER

@<TRIPOS>ATOM
      1 P          23.2518   74.2368   -3.8155 P.3     1  UNL1        0.2189
      2 O          24.0219   72.9821   -3.9615 O.2     1  UNL1       -0.5170
      3 O          23.7617   75.3091   -4.9031 O.3     1  UNL1       -0.4371
      4 O          23.4699   74.8306   -2.3348 O.3     1  UNL1       -0.3112
      5 C          22.4771   74.2337   -1.4991 C.3     1  UNL1        0.1811
      6 C          23.0407   72.4193    1.5534 C.3     1  UNL1        0.2383
      7 C          21.9004   71.6447    0.8462 C.3     1  UNL1        0.1895
      8 O          21.9521   70.2540    1.1664 O.3     1  UNL1       -0.3779
      9 C          22.2268   71.8803   -0.6515 C.3     1  UNL1        0.1713
     10 C          23.1182   73.1372   -0.6472 C.3     1  UNL1        0.1764
     11 O          23.2302   73.5798    0.7162 O.3     1  UNL1       -0.3308
     12 O          22.9320   70.7607   -1.1920 O.3     1  UNL1       -0.3794
     13 H          21.2194   69.8311    0.6975 H       1  UNL1        0.2106
     14 H          22.3460   69.9964   -1.1118 H       1  UNL1        0.2105
     15 N          22.6392   72.8167    2.9033 N.ar    1  UNL1       -0.2551
     16 C          21.3697   72.6283    3.3035 C.ar    1  UNL1        0.3323
     17 N          20.9734   72.9807    4.5409 N.ar    1  UNL1       -0.2743
     18 C          21.8481   73.5406    5.4008 C.ar    1  UNL1        0.2626
     19 C          23.1862   73.7501    4.9904 C.ar    1  UNL1        0.0795
     20 C          23.5582   73.3824    3.7455 C.ar    1  UNL1        0.0869
     21 O          20.5691   72.1244    2.5394 O.2     1  UNL1       -0.2464
     22 O          21.4898   73.8639    6.5181 O.2     1  UNL1       -0.2670
     23 H          20.0550   72.8331    4.8144 H       1  UNL1        0.1734
     24 O          21.6882   73.9371   -4.0483 O.3     1  UNL1       -0.2703
     25 P          21.5970   72.5603   -4.8762 P.3     1  UNL1        0.2208
     26 O          22.2236   71.4720   -4.0940 O.2     1  UNL1       -0.5170
     27 O          22.3692   72.7249   -6.2794 O.3     1  UNL1       -0.4371
     28 O          20.0529   72.2010   -5.1541 O.3     1  UNL1       -0.2865
     29 C          20.0157   70.8404   -5.5886 C.3     1  UNL1        0.2611
     30 C          18.8200   70.6408   -6.5216 C.3     1  UNL1        0.1582
     31 C          17.5333   71.0049   -5.7723 C.3     1  UNL1        0.1625
     32 C          17.4828   70.2038   -4.4670 C.3     1  UNL1        0.1686
     33 C          18.7783   70.4389   -3.6875 C.3     1  UNL1        0.1760
     34 O          16.4005   70.6814   -6.5807 O.3     1  UNL1       -0.3801
     35 O          16.3676   70.6348   -3.6846 O.3     1  UNL1       -0.3794
     36 O          19.8921   69.9841   -4.4551 O.3     1  UNL1       -0.3263
     37 H          15.6152   70.9265   -6.0722 H       1  UNL1        0.2105
     38 H          16.3740   70.1066   -2.8737 H       1  UNL1        0.2105
     39 C          19.6727   71.0810   -8.7606 C.2     1  UNL1        0.2231
     40 C          19.8222   71.9702   -9.9686 C.3     1  UNL1        0.0946
     41 N          18.9651   71.5040   -7.6955 N.am    1  UNL1       -0.2994
     42 O          20.1902   69.9845   -8.7471 O.2     1  UNL1       -0.2751
     43 H          18.5510   72.3815   -7.7060 H       1  UNL1        0.1496
     44 C          18.7242   69.6685   -2.3666 C.3     1  UNL1        0.1693
     45 O          18.2835   68.3315   -2.6122 O.3     1  UNL1       -0.3794
     46 H          18.2632   67.8820   -1.7565 H       1  UNL1        0.2105
@<TRIPOS>BOND
     1    29    30    1
     2    29    28    1
     3    29    36    1
     4    30    31    1
     5    30    41    1
     6    31    32    1
     7    31    34    1
     8    32    33    1
     9    32    35    1
    10    33    44    1
    11    33    36    1
    12    44    45    1
    13    39    40    1
    14    39    41   am
    15    39    42    2
    16    41    43    1
    17    28    25    1
    18    34    37    1
    19    35    38    1
    20    45    46    1
    21    15    16   ar
    22    15    20   ar
    23    15     6    1
    24    16    17   ar
    25    16    21    2
    26    17    18   ar
    27    17    23    1
    28    18    19   ar
    29    18    22    2
    30    19    20   ar
    31     6     7    1
    32     6    11    1
    33     7     8    1
    34     7     9    1
    35     8    13    1
    36     9    10    1
    37     9    12    1
    38    10    11    1
    39    10     5    1
    40    12    14    1
    41     5     4    1
    42     4     1    1
    43     1     2    2
    44     1     3    1
    45     1    24    1
    46    24    25    1
    47    25    26    2
    48    25    27    1
@<TRIPOS>MOLECULE
UD1
 46 48 0 0 0
SMALL
GASTEIGER

@<TRIPOS>ATOM
      1 P          22.0705   71.0111   -0.3398 P.3     1  UNL1        0.2189
      2 O          22.8381   70.4411   -1.4688 O.2     1  UNL1       -0.5170
      3 O          21.6946   69.8398    0.6992 O.3     1  UNL1       -0.4371
      4 O          20.7193   71.6868   -0.8970 O.3     1  UNL1       -0.3112
      5 C          20.7495   71.5605   -2.3195 C.3     1  UNL1        0.1811
      6 C          18.3384   70.7565   -4.8625 C.3     1  UNL1        0.2383
      7 C          18.7864   69.3826   -4.3042 C.3     1  UNL1        0.1895
      8 O          17.7279   68.4276   -4.3867 O.3     1  UNL1       -0.3779
      9 C          19.1114   69.7221   -2.8262 C.3     1  UNL1        0.1713
     10 C          19.3443   71.2453   -2.8345 C.3     1  UNL1        0.1764
     11 O          19.2100   71.6931   -4.1941 O.3     1  UNL1       -0.3308
     12 O          18.0101   69.3824   -1.9810 O.3     1  UNL1       -0.3794
     13 H          18.0701   67.5982   -4.0255 H       1  UNL1        0.2106
     14 H          17.8772   68.4288   -2.0652 H       1  UNL1        0.2105
     15 N          18.5311   70.8160   -6.3119 N.ar    1  UNL1       -0.2551
     16 C          17.5062   70.5279   -7.1328 C.ar    1  UNL1        0.3323
     17 N          17.6537   70.5783   -8.4699 N.ar    1  UNL1       -0.2743
     18 C          18.8431   70.9121   -9.0102 C.ar    1  UNL1        0.2626
     19 C          19.9322   71.2119   -8.1576 C.ar    1  UNL1        0.0795
     20 C          19.7551   71.1589   -6.8201 C.ar    1  UNL1        0.0869
     21 O          16.4272   70.2253   -6.6606 O.2     1  UNL1       -0.2464
     22 O          18.9790   70.9533  -10.2190 O.2     1  UNL1       -0.2670
     23 H          16.9023   70.3720   -9.0470 H       1  UNL1        0.1734
     24 O          22.9598   72.1257    0.4055 O.3     1  UNL1       -0.2703
     25 P          22.3673   72.2742    1.8942 P.3     1  UNL1        0.2208
     26 O          22.9305   71.2127    2.7572 O.2     1  UNL1       -0.5170
     27 O          20.7639   72.1351    1.8507 O.3     1  UNL1       -0.4371
     28 O          22.7634   73.7162    2.4894 O.3     1  UNL1       -0.2865
     29 C          23.0052   73.5359    3.8859 C.3     1  UNL1        0.2611
     30 C          22.0607   74.4377    4.6826 C.3     1  UNL1        0.1582
     31 C          22.2986   75.8963    4.2761 C.3     1  UNL1        0.1625
     32 C          23.7897   76.2123    4.4344 C.3     1  UNL1        0.1686
     33 C          24.6038   75.1782    3.6538 C.3     1  UNL1        0.1760
     34 O          21.5310   76.7592    5.1173 O.3     1  UNL1       -0.3801
     35 O          24.0582   77.5191    3.9229 O.3     1  UNL1       -0.3794
     36 O          24.3588   73.8746    4.1801 O.3     1  UNL1       -0.3263
     37 H          21.7101   77.6641    4.8271 H       1  UNL1        0.2105
     38 H          25.0057   77.6766    4.0413 H       1  UNL1        0.2105
     39 C          19.7637   74.0385    5.3890 C.2     1  UNL1        0.2231
     40 C          18.3354   73.6580    5.0932 C.3     1  UNL1        0.0946
     41 N          20.6729   74.0686    4.3956 N.am    1  UNL1       -0.2994
     42 O          20.0948   74.3171    6.5216 O.2     1  UNL1       -0.2751
     43 H          20.4083   73.8455    3.4891 H       1  UNL1        0.1496
     44 C          26.0936   75.5040    3.7788 C.3     1  UNL1        0.1693
     45 O          26.5999   74.9595    4.9991 O.3     1  UNL1       -0.3794
     46 H          27.5387   75.1869    5.0388 H       1  UNL1        0.2105
@<TRIPOS>BOND
     1    29    30    1
     2    29    28    1
     3    29    36    1
     4    30    31    1
     5    30    41    1
     6    31    32    1
     7    31    34    1
     8    32    33    1
     9    32    35    1
    10    33    44    1
    11    33    36    1
    12    44    45    1
    13    39    40    1
    14    39    41   am
    15    39    42    2
    16    41    43    1
    17    28    25    1
    18    34    37    1
    19    35    38    1
    20    45    46    1
    21    15    16   ar
    22    15    20   ar
    23    15     6    1
    24    16    17   ar
    25    16    21    2
    26    17    18   ar
    27    17    23    1
    28    18    19   ar
    29    18    22    2
    30    19    20   ar
    31     6     7    1
    32     6    11    1
    33     7     8    1
    34     7     9    1
    35     8    13    1
    36     9    10    1
    37     9    12    1
    38    10    11    1
    39    10     5    1
    40    12    14    1
    41     5     4    1
    42     4     1    1
    43     1     2    2
    44     1     3    1
    45     1    24    1
    46    24    25    1
    47    25    26    2
    48    25    27    1
@<TRIPOS>MOLECULE
UD1
 46 48 0 0 0
SMALL
GASTEIGER

@<TRIPOS>ATOM
      1 P          22.8731   71.9160   -3.3442 P.3     1  UNL1        0.2189
      2 O          23.4889   70.5760   -3.2266 O.2     1  UNL1       -0.5170
      3 O          23.8809   72.9036   -4.1199 O.3     1  UNL1       -0.4371
      4 O          22.5765   72.5006   -1.8735 O.3     1  UNL1       -0.3112
      5 C          21.7085   71.5695   -1.2253 C.3     1  UNL1        0.1811
      6 C          21.4370   73.5357    1.7726 C.3     1  UNL1        0.2383
      7 C          21.3462   74.5686    0.6215 C.3     1  UNL1        0.1895
      8 O          20.5326   75.6809    0.9957 O.3     1  UNL1       -0.3779
      9 C          20.6709   73.7429   -0.5043 C.3     1  UNL1        0.1713
     10 C          20.9412   72.2785   -0.1082 C.3     1  UNL1        0.1764
     11 O          21.7320   72.2972    1.0924 O.3     1  UNL1       -0.3308
     12 O          19.2667   74.0061   -0.5443 O.3     1  UNL1       -0.3794
     13 H          20.5175   76.2839    0.2396 H       1  UNL1        0.2106
     14 H          19.1644   74.9477   -0.7370 H       1  UNL1        0.2105
     15 N          22.5140   73.8846    2.6998 N.ar    1  UNL1       -0.2551
     16 C          22.4179   73.5355    3.9945 C.ar    1  UNL1        0.3323
     17 N          23.3951   73.8399    4.8689 N.ar    1  UNL1       -0.2743
     18 C          24.4891   74.5126    4.4582 C.ar    1  UNL1        0.2626
     19 C          24.6004   74.8915    3.0992 C.ar    1  UNL1        0.0795
     20 C          23.6079   74.5688    2.2424 C.ar    1  UNL1        0.0869
     21 O          21.4374   72.9284    4.3801 O.2     1  UNL1       -0.2464
     22 O          25.3710   74.7925    5.2489 O.2     1  UNL1       -0.2670
     23 H          23.3113   73.5760    5.7982 H       1  UNL1        0.1734
     24 O          21.4937   71.8027   -4.1647 O.3     1  UNL1       -0.2703
     25 P          21.4986   72.9918   -5.2488 P.3     1  UNL1        0.2208
     26 O          22.7451   72.9297   -6.0432 O.2     1  UNL1       -0.5170
     27 O          21.4160   74.4100   -4.4912 O.3     1  UNL1       -0.4371
     28 O          20.2304   72.8330   -6.2271 O.3     1  UNL1       -0.2865
     29 C          20.2525   71.4923   -6.7201 C.3     1  UNL1        0.2611
     30 C          20.2326   71.5162   -8.2495 C.3     1  UNL1        0.1582
     31 C          18.9705   72.2460   -8.7230 C.3     1  UNL1        0.1625
     32 C          17.7505   71.5926   -8.0651 C.3     1  UNL1        0.1686
     33 C          17.9565   71.5658   -6.5491 C.3     1  UNL1        0.1760
     34 O          18.8638   72.1451  -10.1442 O.3     1  UNL1       -0.3801
     35 O          16.5781   72.3477   -8.3762 O.3     1  UNL1       -0.3794
     36 O          19.1114   70.7894   -6.2331 O.3     1  UNL1       -0.3263
     37 H          18.0586   72.6168  -10.3981 H       1  UNL1        0.2105
     38 H          15.8358   71.9030   -7.9428 H       1  UNL1        0.2105
     39 C          21.3601   73.5351   -9.0155 C.2     1  UNL1        0.2231
     40 C          22.5819   74.2561   -9.5251 C.3     1  UNL1        0.0946
     41 N          21.4193   72.2171   -8.7440 N.am    1  UNL1       -0.2994
     42 O          20.3231   74.1414   -8.8505 O.2     1  UNL1       -0.2751
     43 H          22.2490   71.7316   -8.8762 H       1  UNL1        0.1496
     44 C          16.7289   70.9443   -5.8798 C.3     1  UNL1        0.1693
     45 O          16.3188   69.7893   -6.6146 O.3     1  UNL1       -0.3794
     46 H          15.5447   69.4293   -6.1609 H       1  UNL1        0.2105
@<TRIPOS>BOND
     1    29    30    1
     2    29    28    1
     3    29    36    1
     4    30    31    1
     5    30    41    1
     6    31    32    1
     7    31    34    1
     8    32    33    1
     9    32    35    1
    10    33    44    1
    11    33    36    1
    12    44    45    1
    13    39    40    1
    14    39    41   am
    15    39    42    2
    16    41    43    1
    17    28    25    1
    18    34    37    1
    19    35    38    1
    20    45    46    1
    21    15    16   ar
    22    15    20   ar
    23    15     6    1
    24    16    17   ar
    25    16    21    2
    26    17    18   ar
    27    17    23    1
    28    18    19   ar
    29    18    22    2
    30    19    20   ar
    31     6     7    1
    32     6    11    1
    33     7     8    1
    34     7     9    1
    35     8    13    1
    36     9    10    1
    37     9    12    1
    38    10    11    1
    39    10     5    1
    40    12    14    1
    41     5     4    1
    42     4     1    1
    43     1     2    2
    44     1     3    1
    45     1    24    1
    46    24    25    1
    47    25    26    2
    48    25    27    1
@<TRIPOS>MOLECULE
UD1
 46 48 0 0 0
SMALL
GASTEIGER

@<TRIPOS>ATOM
      1 P          22.5834   72.1959   -3.5664 P.3     1  UNL1        0.2189
      2 O          23.4496   71.0027   -3.4455 O.2     1  UNL1       -0.5170
      3 O          23.3524   73.3345   -4.4061 O.3     1  UNL1       -0.4371
      4 O          22.2353   72.7567   -2.0977 O.3     1  UNL1       -0.3112
      5 C          20.8771   72.4037   -1.8311 C.3     1  UNL1        0.1811
      6 C          20.4250   74.2861    1.1987 C.3     1  UNL1        0.2383
      7 C          21.4507   75.1092    0.3797 C.3     1  UNL1        0.1895
      8 O          21.3270   76.5040    0.6597 O.3     1  UNL1       -0.3779
      9 C          21.0272   74.7979   -1.0794 C.3     1  UNL1        0.1713
     10 C          20.2286   73.4851   -0.9655 C.3     1  UNL1        0.1764
     11 O          20.2530   73.0858    0.4156 O.3     1  UNL1       -0.3308
     12 O          20.2062   75.8472   -1.5967 O.3     1  UNL1       -0.3794
     13 H          21.9901   76.9577    0.1213 H       1  UNL1        0.2106
     14 H          20.7420   76.6516   -1.5870 H       1  UNL1        0.2105
     15 N          20.9559   73.9658    2.5242 N.ar    1  UNL1       -0.2551
     16 C          21.3662   72.7142    2.7931 C.ar    1  UNL1        0.3323
     17 N          21.8625   72.3921    4.0023 N.ar    1  UNL1       -0.2743
     18 C          21.9476   73.3248    4.9723 C.ar    1  UNL1        0.2626
     19 C          21.5136   74.6450    4.7047 C.ar    1  UNL1        0.0795
     20 C          21.0250   74.9420    3.4814 C.ar    1  UNL1        0.0869
     21 O          21.2959   71.8619    1.9286 O.2     1  UNL1       -0.2464
     22 O          22.3916   73.0335    6.0674 O.2     1  UNL1       -0.2670
     23 H          22.1582   71.4854    4.1773 H       1  UNL1        0.1734
     24 O          21.2217   71.7961   -4.3246 O.3     1  UNL1       -0.2703
     25 P          21.0596   72.8166   -5.5582 P.3     1  UNL1        0.2208
     26 O          22.1941   72.6454   -6.4922 O.2     1  UNL1       -0.5170
     27 O          21.0437   74.3289   -5.0060 O.3     1  UNL1       -0.4371
     28 O          19.6796   72.5138   -6.3290 O.3     1  UNL1       -0.2865
     29 C          18.6263   72.6992   -5.3817 C.3     1  UNL1        0.2611
     30 C          17.7480   71.4472   -5.3516 C.3     1  UNL1        0.1582
     31 C          17.1780   71.2010   -6.7531 C.3     1  UNL1        0.1625
     32 C          16.4771   72.4780   -7.2285 C.3     1  UNL1        0.1686
     33 C          17.4525   73.6519   -7.1198 C.3     1  UNL1        0.1760
     34 O          16.2394   70.1247   -6.7061 O.3     1  UNL1       -0.3801
     35 O          16.0666   72.3202   -8.5879 O.3     1  UNL1       -0.3794
     36 O          17.8433   73.8296   -5.7588 O.3     1  UNL1       -0.3263
     37 H          15.9071   70.0043   -7.6063 H       1  UNL1        0.2105
     38 H          15.6317   73.1452   -8.8464 H       1  UNL1        0.2105
     39 C          18.3606   69.7374   -3.7282 C.2     1  UNL1        0.2231
     40 C          19.1886   68.5512   -3.3042 C.3     1  UNL1        0.0946
     41 N          18.5517   70.2946   -4.9395 N.am    1  UNL1       -0.2994
     42 O          17.5225   70.1908   -2.9784 O.2     1  UNL1       -0.2751
     43 H          19.2225   69.9320   -5.5396 H       1  UNL1        0.1496
     44 C          16.7724   74.9268   -7.6228 C.3     1  UNL1        0.1693
     45 O          17.3465   76.0621   -6.9720 O.3     1  UNL1       -0.3794
     46 H          16.8908   76.8421   -7.3162 H       1  UNL1        0.2105
@<TRIPOS>BOND
     1    29    30    1
     2    29    28    1
     3    29    36    1
     4    30    31    1
     5    30    41    1
     6    31    32    1
     7    31    34    1
     8    32    33    1
     9    32    35    1
    10    33    44    1
    11    33    36    1
    12    44    45    1
    13    39    40    1
    14    39    41   am
    15    39    42    2
    16    41    43    1
    17    28    25    1
    18    34    37    1
    19    35    38    1
    20    45    46    1
    21    15    16   ar
    22    15    20   ar
    23    15     6    1
    24    16    17   ar
    25    16    21    2
    26    17    18   ar
    27    17    23    1
    28    18    19   ar
    29    18    22    2
    30    19    20   ar
    31     6     7    1
    32     6    11    1
    33     7     8    1
    34     7     9    1
    35     8    13    1
    36     9    10    1
    37     9    12    1
    38    10    11    1
    39    10     5    1
    40    12    14    1
    41     5     4    1
    42     4     1    1
    43     1     2    2
    44     1     3    1
    45     1    24    1
    46    24    25    1
    47    25    26    2
    48    25    27    1
@<TRIPOS>MOLECULE
UD1
 46 48 0 0 0
SMALL
GASTEIGER

@<TRIPOS>ATOM
      1 P          20.2846   72.1830   -5.4020 P.3     1  UNL1        0.2189
      2 O          19.7622   70.9993   -4.6846 O.2     1  UNL1       -0.5170
      3 O          19.3461   73.4546   -5.0942 O.3     1  UNL1       -0.4371
      4 O          20.2889   71.8913   -6.9856 O.3     1  UNL1       -0.3112
      5 C          19.3836   70.8093   -7.2096 C.3     1  UNL1        0.1811
      6 C          16.4719   72.7366   -8.0663 C.3     1  UNL1        0.2383
      7 C          17.6639   73.5925   -8.5631 C.3     1  UNL1        0.1895
      8 O          17.2981   74.3619   -9.7091 O.3     1  UNL1       -0.3779
      9 C          18.7099   72.5095   -8.9345 C.3     1  UNL1        0.1713
     10 C          18.2605   71.2673   -8.1413 C.3     1  UNL1        0.1764
     11 O          17.1079   71.6445   -7.3689 O.3     1  UNL1       -0.3308
     12 O          18.6841   72.2501  -10.3398 O.3     1  UNL1       -0.3794
     13 H          18.0799   74.8698   -9.9668 H       1  UNL1        0.2106
     14 H          18.9152   73.0783  -10.7810 H       1  UNL1        0.2105
     15 N          15.6236   73.5064   -7.1556 N.ar    1  UNL1       -0.2551
     16 C          14.5882   74.2107   -7.6446 C.ar    1  UNL1        0.3323
     17 N          13.7890   74.9246   -6.8298 N.ar    1  UNL1       -0.2743
     18 C          14.0222   74.9517   -5.5021 C.ar    1  UNL1        0.2626
     19 C          15.1125   74.2196   -4.9746 C.ar    1  UNL1        0.0795
     20 C          15.8949   73.5077   -5.8138 C.ar    1  UNL1        0.0869
     21 O          14.3650   74.1962   -8.8398 O.2     1  UNL1       -0.2464
     22 O          13.3032   75.6006   -4.7651 O.2     1  UNL1       -0.2670
     23 H          13.0438   75.4230   -7.1992 H       1  UNL1        0.1734
     24 O          21.7850   72.4903   -4.9091 O.3     1  UNL1       -0.2703
     25 P          22.0083   71.6564   -3.5512 P.3     1  UNL1        0.2208
     26 O          23.4182   71.2157   -3.4692 O.2     1  UNL1       -0.5170
     27 O          21.0429   70.3679   -3.5470 O.3     1  UNL1       -0.4371
     28 O          21.6629   72.5880   -2.2849 O.3     1  UNL1       -0.2865
     29 C          20.5307   72.0045   -1.6377 C.3     1  UNL1        0.2611
     30 C          19.7383   73.0997   -0.9217 C.3     1  UNL1        0.1582
     31 C          20.6487   73.7910    0.0995 C.3     1  UNL1        0.1625
     32 C          21.2583   72.7235    1.0142 C.3     1  UNL1        0.1686
     33 C          21.9389   71.6581    0.1522 C.3     1  UNL1        0.1760
     34 O          19.8825   74.7123    0.8776 O.3     1  UNL1       -0.3801
     35 O          22.2222   73.3284    1.8783 O.3     1  UNL1       -0.3794
     36 O          20.9737   71.0328   -0.6927 O.3     1  UNL1       -0.3263
     37 H          20.4930   75.1235    1.5049 H       1  UNL1        0.2105
     38 H          22.5808   72.6226    2.4349 H       1  UNL1        0.2105
     39 C          19.9712   75.2058   -2.1236 C.2     1  UNL1        0.2231
     40 C          19.4830   76.2159   -3.1305 C.3     1  UNL1        0.0946
     41 N          19.2648   74.0810   -1.9002 N.am    1  UNL1       -0.2994
     42 O          20.9998   75.4061   -1.5137 O.2     1  UNL1       -0.2751
     43 H          18.4414   73.9206   -2.3879 H       1  UNL1        0.1496
     44 C          22.5793   70.6039    1.0575 C.3     1  UNL1        0.1693
     45 O          22.0713   69.3120    0.7182 O.3     1  UNL1       -0.3794
     46 H          22.4989   68.6788    1.3106 H       1  UNL1        0.2105
@<TRIPOS>BOND
     1    29    30    1
     2    29    28    1
     3    29    36    1
     4    30    31    1
     5    30    41    1
     6    31    32    1
     7    31    34    1
     8    32    33    1
     9    32    35    1
    10    33    44    1
    11    33    36    1
    12    44    45    1
    13    39    40    1
    14    39    41   am
    15    39    42    2
    16    41    43    1
    17    28    25    1
    18    34    37    1
    19    35    38    1
    20    45    46    1
    21    15    16   ar
    22    15    20   ar
    23    15     6    1
    24    16    17   ar
    25    16    21    2
    26    17    18   ar
    27    17    23    1
    28    18    19   ar
    29    18    22    2
    30    19    20   ar
    31     6     7    1
    32     6    11    1
    33     7     8    1
    34     7     9    1
    35     8    13    1
    36     9    10    1
    37     9    12    1
    38    10    11    1
    39    10     5    1
    40    12    14    1
    41     5     4    1
    42     4     1    1
    43     1     2    2
    44     1     3    1
    45     1    24    1
    46    24    25    1
    47    25    26    2
    48    25    27    1
@<TRIPOS>MOLECULE
UD1
 46 48 0 0 0
SMALL
GASTEIGER

@<TRIPOS>ATOM
      1 P          21.4091   71.0434   -2.6983 P.3     1  UNL1        0.2189
      2 O          22.8339   71.3563   -2.9449 O.2     1  UNL1       -0.5170
      3 O          21.1756   69.4567   -2.8408 O.3     1  UNL1       -0.4371
      4 O          20.4961   71.8180   -3.7750 O.3     1  UNL1       -0.3112
      5 C          19.9685   70.8278   -4.6590 C.3     1  UNL1        0.1811
      6 C          16.9470   71.8206   -6.3359 C.3     1  UNL1        0.2383
      7 C          17.1213   70.3255   -6.7029 C.3     1  UNL1        0.1895
      8 O          15.8545   69.6960   -6.8979 O.3     1  UNL1       -0.3779
      9 C          17.8314   69.7620   -5.4446 C.3     1  UNL1        0.1713
     10 C          18.4539   71.0042   -4.7782 C.3     1  UNL1        0.1764
     11 O          18.1577   72.1348   -5.6156 O.3     1  UNL1       -0.3308
     12 O          16.8852   69.1398   -4.5726 O.3     1  UNL1       -0.3794
     13 H          16.0324   68.7723   -7.1230 H       1  UNL1        0.2106
     14 H          16.4886   68.4097   -5.0663 H       1  UNL1        0.2105
     15 N          16.8360   72.6419   -7.5420 N.ar    1  UNL1       -0.2551
     16 C          17.8761   72.7248   -8.3897 C.ar    1  UNL1        0.3323
     17 N          17.8007   73.4696   -9.5085 N.ar    1  UNL1       -0.2743
     18 C          16.6757   74.1561   -9.7933 C.ar    1  UNL1        0.2626
     19 C          15.5753   74.0824   -8.9065 C.ar    1  UNL1        0.0795
     20 C          15.6760   73.3237   -7.7941 C.ar    1  UNL1        0.0869
     21 O          18.8975   72.1114   -8.1466 O.2     1  UNL1       -0.2464
     22 O          16.6082   74.8335  -10.8022 O.2     1  UNL1       -0.2670
     23 H          18.5590   73.5142  -10.1112 H       1  UNL1        0.1734
     24 O          21.0051   71.5151   -1.2141 O.3     1  UNL1       -0.2703
     25 P          22.1132   70.9102   -0.2163 P.3     1  UNL1        0.2208
     26 O          23.2759   70.4370   -0.9992 O.2     1  UNL1       -0.5170
     27 O          21.4818   69.6772    0.6041 O.3     1  UNL1       -0.4371
     28 O          22.5890   72.0511    0.8145 O.3     1  UNL1       -0.2865
     29 C          21.4272   72.8067    1.1616 C.3     1  UNL1        0.2611
     30 C          21.6672   74.2814    0.8335 C.3     1  UNL1        0.1582
     31 C          22.8885   74.7767    1.6162 C.3     1  UNL1        0.1625
     32 C          22.6780   74.4651    3.1017 C.3     1  UNL1        0.1686
     33 C          22.3647   72.9757    3.2589 C.3     1  UNL1        0.1760
     34 O          23.0338   76.1865    1.4352 O.3     1  UNL1       -0.3801
     35 O          23.8651   74.7847    3.8299 O.3     1  UNL1       -0.3794
     36 O          21.1644   72.6586    2.5553 O.3     1  UNL1       -0.3263
     37 H          23.8119   76.4547    1.9430 H       1  UNL1        0.2105
     38 H          23.6896   74.5731    4.7578 H       1  UNL1        0.2105
     39 C          23.1735   74.4711   -1.0716 C.2     1  UNL1        0.2231
     40 C          23.4244   74.6249   -2.5500 C.3     1  UNL1        0.0946
     41 N          21.9115   74.4304   -0.6026 N.am    1  UNL1       -0.2994
     42 O          24.1079   74.3847   -0.3038 O.2     1  UNL1       -0.2751
     43 H          21.1635   74.4998   -1.2168 H       1  UNL1        0.1496
     44 C          22.1847   72.6475    4.7425 C.3     1  UNL1        0.1693
     45 O          20.8635   73.0051    5.1530 O.3     1  UNL1       -0.3794
     46 H          20.7922   72.7830    6.0912 H       1  UNL1        0.2105
@<TRIPOS>BOND
     1    29    30    1
     2    29    28    1
     3    29    36    1
     4    30    31    1
     5    30    41    1
     6    31    32    1
     7    31    34    1
     8    32    33    1
     9    32    35    1
    10    33    44    1
    11    33    36    1
    12    44    45    1
    13    39    40    1
    14    39    41   am
    15    39    42    2
    16    41    43    1
    17    28    25    1
    18    34    37    1
    19    35    38    1
    20    45    46    1
    21    15    16   ar
    22    15    20   ar
    23    15     6    1
    24    16    17   ar
    25    16    21    2
    26    17    18   ar
    27    17    23    1
    28    18    19   ar
    29    18    22    2
    30    19    20   ar
    31     6     7    1
    32     6    11    1
    33     7     8    1
    34     7     9    1
    35     8    13    1
    36     9    10    1
    37     9    12    1
    38    10    11    1
    39    10     5    1
    40    12    14    1
    41     5     4    1
    42     4     1    1
    43     1     2    2
    44     1     3    1
    45     1    24    1
    46    24    25    1
    47    25    26    2
    48    25    27    1
@<TRIPOS>MOLECULE
UD1
 46 48 0 0 0
SMALL
GASTEIGER

@<TRIPOS>ATOM
      1 P          18.4586   70.8685   -3.3364 P.3     1  UNL1        0.2189
      2 O          17.1220   71.1118   -2.7508 O.2     1  UNL1       -0.5170
      3 O          18.5981   69.3129   -3.7277 O.3     1  UNL1       -0.4371
      4 O          19.5934   71.2541   -2.2610 O.3     1  UNL1       -0.3112
      5 C          20.2465   72.4263   -2.7508 C.3     1  UNL1        0.1811
      6 C          22.8138   72.3615   -0.2344 C.3     1  UNL1        0.2383
      7 C          22.6416   70.8794   -0.6516 C.3     1  UNL1        0.1895
      8 O          23.8718   70.1659   -0.5223 O.3     1  UNL1       -0.3779
      9 C          22.2294   71.0063   -2.1413 C.3     1  UNL1        0.1713
     10 C          21.6951   72.4467   -2.2605 C.3     1  UNL1        0.1764
     11 O          21.7601   73.0387   -0.9519 O.3     1  UNL1       -0.3308
     12 O          23.3617   70.8137   -2.9919 O.3     1  UNL1       -0.3794
     13 H          23.6972   69.2547   -0.7956 H       1  UNL1        0.2106
     14 H          23.6851   69.9179   -2.8278 H       1  UNL1        0.2105
     15 N          22.6381   72.5183    1.2099 N.ar    1  UNL1       -0.2551
     16 C          22.0421   71.5435    1.9183 C.ar    1  UNL1        0.3323
     17 N          21.8708   71.6591    3.2485 N.ar    1  UNL1       -0.2743
     18 C          22.2893   72.7665    3.8939 C.ar    1  UNL1        0.2626
     19 C          22.9130   73.8030    3.1594 C.ar    1  UNL1        0.0795
     20 C          23.0770   73.6588    1.8268 C.ar    1  UNL1        0.0869
     21 O          21.6593   70.5387    1.3505 O.2     1  UNL1       -0.2464
     22 O          22.1306   72.8741    5.0958 O.2     1  UNL1       -0.2670
     23 H          21.4430   70.9440    3.7445 H       1  UNL1        0.1734
     24 O          18.6396   71.7728   -4.6549 O.3     1  UNL1       -0.2703
     25 P          17.2227   72.4848   -4.9283 P.3     1  UNL1        0.2208
     26 O          16.8913   73.3753   -3.7943 O.2     1  UNL1       -0.5170
     27 O          16.0782   71.3629   -5.0811 O.3     1  UNL1       -0.4371
     28 O          17.3081   73.3502   -6.2828 O.3     1  UNL1       -0.2865
     29 C          16.1304   73.0572   -7.0367 C.3     1  UNL1        0.2611
     30 C          16.5226   72.7261   -8.4777 C.3     1  UNL1        0.1582
     31 C          17.2682   73.9216   -9.0815 C.3     1  UNL1        0.1625
     32 C          16.4029   75.1749   -8.9128 C.3     1  UNL1        0.1686
     33 C          16.0222   75.3229   -7.4382 C.3     1  UNL1        0.1760
     34 O          17.5082   73.6846  -10.4699 O.3     1  UNL1       -0.3801
     35 O          17.1390   76.3243   -9.3356 O.3     1  UNL1       -0.3794
     36 O          15.2633   74.1891   -7.0201 O.3     1  UNL1       -0.3263
     37 H          17.9781   74.4592  -10.8084 H       1  UNL1        0.2105
     38 H          16.5588   77.0890   -9.2121 H       1  UNL1        0.2105
     39 C          18.7310   71.6979   -8.4773 C.2     1  UNL1        0.2231
     40 C          19.6260   70.4850   -8.4909 C.3     1  UNL1        0.0946
     41 N          17.3925   71.5482   -8.4904 N.am    1  UNL1       -0.2994
     42 O          19.2160   72.8089   -8.4552 O.2     1  UNL1       -0.2751
     43 H          17.0041   70.6591   -8.5083 H       1  UNL1        0.1496
     44 C          15.1846   76.5900   -7.2537 C.3     1  UNL1        0.1693
     45 O          15.8220   77.4490   -6.3061 O.3     1  UNL1       -0.3794
     46 H          15.2632   78.2331   -6.2191 H       1  UNL1        0.2105
@<TRIPOS>BOND
     1    29    30    1
     2    29    28    1
     3    29    36    1
     4    30    31    1
     5    30    41    1
     6    31    32    1
     7    31    34    1
     8    32    33    1
     9    32    35    1
    10    33    44    1
    11    33    36    1
    12    44    45    1
    13    39    40    1
    14    39    41   am
    15    39    42    2
    16    41    43    1
    17    28    25    1
    18    34    37    1
    19    35    38    1
    20    45    46    1
    21    15    16   ar
    22    15    20   ar
    23    15     6    1
    24    16    17   ar
    25    16    21    2
    26    17    18   ar
    27    17    23    1
    28    18    19   ar
    29    18    22    2
    30    19    20   ar
    31     6     7    1
    32     6    11    1
    33     7     8    1
    34     7     9    1
    35     8    13    1
    36     9    10    1
    37     9    12    1
    38    10    11    1
    39    10     5    1
    40    12    14    1
    41     5     4    1
    42     4     1    1
    43     1     2    2
    44     1     3    1
    45     1    24    1
    46    24    25    1
    47    25    26    2
    48    25    27    1
@<TRIPOS>MOLECULE
UD1
 46 48 0 0 0
SMALL
GASTEIGER

@<TRIPOS>ATOM
      1 P          22.7803   72.8605   -4.3534 P.3     1  UNL1        0.2189
      2 O          21.7641   73.8166   -3.8615 O.2     1  UNL1       -0.5170
      3 O          22.5403   71.4229   -3.6691 O.3     1  UNL1       -0.4371
      4 O          24.2499   73.3967   -3.9717 O.3     1  UNL1       -0.3112
      5 C          24.1763   74.8230   -3.9459 C.3     1  UNL1        0.1811
      6 C          27.6982   75.5128   -4.1637 C.3     1  UNL1        0.2383
      7 C          27.0187   76.7711   -4.7595 C.3     1  UNL1        0.1895
      8 O          27.8069   77.9381   -4.5229 O.3     1  UNL1       -0.3779
      9 C          25.6890   76.8308   -3.9635 C.3     1  UNL1        0.1713
     10 C          25.5016   75.3939   -3.4393 C.3     1  UNL1        0.1764
     11 O          26.5961   74.6077   -3.9404 O.3     1  UNL1       -0.3308
     12 O          25.7960   77.7558   -2.8792 O.3     1  UNL1       -0.3794
     13 H          27.3311   78.6822   -4.9170 H       1  UNL1        0.2106
     14 H          25.9717   78.6230   -3.2682 H       1  UNL1        0.2105
     15 N          28.6528   74.9393   -5.1131 N.ar    1  UNL1       -0.2551
     16 C          29.7217   74.2634   -4.6570 C.ar    1  UNL1        0.3323
     17 N          30.6139   73.7219   -5.5074 N.ar    1  UNL1       -0.2743
     18 C          30.4527   73.8583   -6.8390 C.ar    1  UNL1        0.2626
     19 C          29.3351   74.5726   -7.3326 C.ar    1  UNL1        0.0795
     20 C          28.4528   75.1009   -6.4576 C.ar    1  UNL1        0.0869
     21 O          29.8808   74.1318   -3.4587 O.2     1  UNL1       -0.2464
     22 O          31.2613   73.3733   -7.6087 O.2     1  UNL1       -0.2670
     23 H          31.3765   73.2335   -5.1610 H       1  UNL1        0.1734
     24 O          22.6580   72.7223   -5.9517 O.3     1  UNL1       -0.2703
     25 P          21.1667   73.1810   -6.3453 P.3     1  UNL1        0.2208
     26 O          20.8831   72.7892   -7.7434 O.2     1  UNL1       -0.5170
     27 O          21.0404   74.7795   -6.2006 O.3     1  UNL1       -0.4371
     28 O          20.1083   72.4694   -5.3634 O.3     1  UNL1       -0.2865
     29 C          19.4924   71.4183   -6.1097 C.3     1  UNL1        0.2611
     30 C          17.9880   71.6796   -6.2028 C.3     1  UNL1        0.1582
     31 C          17.4035   71.7530   -4.7877 C.3     1  UNL1        0.1625
     32 C          17.7988   70.4825   -4.0277 C.3     1  UNL1        0.1686
     33 C          19.3180   70.3132   -4.0961 C.3     1  UNL1        0.1760
     34 O          15.9797   71.8470   -4.8621 O.3     1  UNL1       -0.3801
     35 O          17.3900   70.5951   -2.6632 O.3     1  UNL1       -0.3794
     36 O          19.7267   70.1728   -5.4562 O.3     1  UNL1       -0.3263
     37 H          15.6548   71.8911   -3.9522 H       1  UNL1        0.2105
     38 H          17.6583   69.7765   -2.2223 H       1  UNL1        0.2105
     39 C          16.7252   73.0636   -7.7598 C.2     1  UNL1        0.2231
     40 C          16.4840   74.3688   -8.4745 C.3     1  UNL1        0.0946
     41 N          17.7530   72.9474   -6.8970 N.am    1  UNL1       -0.2994
     42 O          15.9942   72.1176   -7.9619 O.2     1  UNL1       -0.2751
     43 H          18.3383   73.7043   -6.7352 H       1  UNL1        0.1496
     44 C          19.7265   69.0642   -3.3122 C.3     1  UNL1        0.1693
     45 O          21.1267   69.1147   -3.0311 O.3     1  UNL1       -0.3794
     46 H          21.3421   68.3116   -2.5378 H       1  UNL1        0.2105
@<TRIPOS>BOND
     1    29    30    1
     2    29    28    1
     3    29    36    1
     4    30    31    1
     5    30    41    1
     6    31    32    1
     7    31    34    1
     8    32    33    1
     9    32    35    1
    10    33    44    1
    11    33    36    1
    12    44    45    1
    13    39    40    1
    14    39    41   am
    15    39    42    2
    16    41    43    1
    17    28    25    1
    18    34    37    1
    19    35    38    1
    20    45    46    1
    21    15    16   ar
    22    15    20   ar
    23    15     6    1
    24    16    17   ar
    25    16    21    2
    26    17    18   ar
    27    17    23    1
    28    18    19   ar
    29    18    22    2
    30    19    20   ar
    31     6     7    1
    32     6    11    1
    33     7     8    1
    34     7     9    1
    35     8    13    1
    36     9    10    1
    37     9    12    1
    38    10    11    1
    39    10     5    1
    40    12    14    1
    41     5     4    1
    42     4     1    1
    43     1     2    2
    44     1     3    1
    45     1    24    1
    46    24    25    1
    47    25    26    2
    48    25    27    1
@<TRIPOS>MOLECULE
UD1
 46 48 0 0 0
SMALL
GASTEIGER

@<TRIPOS>ATOM
      1 P          21.1541   70.2532   -1.8969 P.3     1  UNL1        0.2189
      2 O          20.6360   69.1801   -2.7737 O.2     1  UNL1       -0.5170
      3 O          22.7010   70.5317   -2.2462 O.3     1  UNL1       -0.4371
      4 O          21.0262   69.7966   -0.3581 O.3     1  UNL1       -0.3112
      5 C          21.9567   70.5845    0.3861 C.3     1  UNL1        0.1811
      6 C          21.2960   73.5310    2.3377 C.3     1  UNL1        0.2383
      7 C          22.5999   73.8594    1.5681 C.3     1  UNL1        0.1895
      8 O          22.6949   75.2582    1.2970 O.3     1  UNL1       -0.3779
      9 C          22.4158   73.0528    0.2564 C.3     1  UNL1        0.1713
     10 C          21.3729   71.9785    0.6208 C.3     1  UNL1        0.1764
     11 O          21.0516   72.1462    2.0122 O.3     1  UNL1       -0.3308
     12 O          21.9283   73.8990   -0.7871 O.3     1  UNL1       -0.3794
     13 H          23.5246   75.3953    0.8192 H       1  UNL1        0.2106
     14 H          22.5965   74.5831   -0.9270 H       1  UNL1        0.2105
     15 N          21.4879   73.6964    3.7790 N.ar    1  UNL1       -0.2551
     16 C          20.4327   73.9753    4.5639 C.ar    1  UNL1        0.3323
     17 N          20.5791   74.1288    5.8933 N.ar    1  UNL1       -0.2743
     18 C          21.7967   74.0133    6.4606 C.ar    1  UNL1        0.2626
     19 C          22.9171   73.7258    5.6452 C.ar    1  UNL1        0.0795
     20 C          22.7411   73.5715    4.3153 C.ar    1  UNL1        0.0869
     21 O          19.3280   74.0824    4.0670 O.2     1  UNL1       -0.2464
     22 O          21.9310   74.1565    7.6618 O.2     1  UNL1       -0.2670
     23 H          19.8062   74.3250    6.4450 H       1  UNL1        0.1734
     24 O          20.2998   71.5965   -2.1305 O.3     1  UNL1       -0.2703
     25 P          20.6852   72.1439   -3.5938 P.3     1  UNL1        0.2208
     26 O          22.0006   71.5976   -3.9940 O.2     1  UNL1       -0.5170
     27 O          20.7595   73.7519   -3.5636 O.3     1  UNL1       -0.4371
     28 O          19.5665   71.6796   -4.6537 O.3     1  UNL1       -0.2865
     29 C          19.2361   72.8277   -5.4373 C.3     1  UNL1        0.2611
     30 C          17.7168   72.9123   -5.5937 C.3     1  UNL1        0.1582
     31 C          17.2104   71.6325   -6.2685 C.3     1  UNL1        0.1625
     32 C          17.9894   71.4243   -7.5716 C.3     1  UNL1        0.1686
     33 C          19.4884   71.4489   -7.2654 C.3     1  UNL1        0.1760
     34 O          15.8167   71.7618   -6.5554 O.3     1  UNL1       -0.3801
     35 O          17.6374   70.1626   -8.1424 O.3     1  UNL1       -0.3794
     36 O          19.8484   72.7177   -6.7205 O.3     1  UNL1       -0.3263
     37 H          15.5406   70.9367   -6.9777 H       1  UNL1        0.2105
     38 H          18.1499   70.0720   -8.9583 H       1  UNL1        0.2105
     39 C          16.6141   71.9649   -3.6390 C.2     1  UNL1        0.2231
     40 C          15.9742   72.1076   -2.2817 C.3     1  UNL1        0.0946
     41 N          17.0955   73.0503   -4.2749 N.am    1  UNL1       -0.2994
     42 O          16.6952   70.8726   -4.1593 O.2     1  UNL1       -0.2751
     43 H          17.0305   73.9245   -3.8589 H       1  UNL1        0.1496
     44 C          20.2752   71.2093   -8.5556 C.3     1  UNL1        0.1693
     45 O          20.4172   69.8041   -8.7734 O.3     1  UNL1       -0.3794
     46 H          20.9175   69.6973   -9.5937 H       1  UNL1        0.2105
@<TRIPOS>BOND
     1    29    30    1
     2    29    28    1
     3    29    36    1
     4    30    31    1
     5    30    41    1
     6    31    32    1
     7    31    34    1
     8    32    33    1
     9    32    35    1
    10    33    44    1
    11    33    36    1
    12    44    45    1
    13    39    40    1
    14    39    41   am
    15    39    42    2
    16    41    43    1
    17    28    25    1
    18    34    37    1
    19    35    38    1
    20    45    46    1
    21    15    16   ar
    22    15    20   ar
    23    15     6    1
    24    16    17   ar
    25    16    21    2
    26    17    18   ar
    27    17    23    1
    28    18    19   ar
    29    18    22    2
    30    19    20   ar
    31     6     7    1
    32     6    11    1
    33     7     8    1
    34     7     9    1
    35     8    13    1
    36     9    10    1
    37     9    12    1
    38    10    11    1
    39    10     5    1
    40    12    14    1
    41     5     4    1
    42     4     1    1
    43     1     2    2
    44     1     3    1
    45     1    24    1
    46    24    25    1
    47    25    26    2
    48    25    27    1
@<TRIPOS>MOLECULE
UD1
 46 48 0 0 0
SMALL
GASTEIGER

@<TRIPOS>ATOM
      1 P          21.1296   70.5657   -2.8531 P.3     1  UNL1        0.2189
      2 O          22.5502   70.1533   -2.8763 O.2     1  UNL1       -0.5170
      3 O          21.0195   72.1319   -3.2099 O.3     1  UNL1       -0.4371
      4 O          20.5200   70.3065   -1.3854 O.3     1  UNL1       -0.3112
      5 C          21.5007   70.7490   -0.4459 C.3     1  UNL1        0.1811
      6 C          21.5160   73.6959    1.6139 C.3     1  UNL1        0.2383
      7 C          22.9267   73.6620    0.9744 C.3     1  UNL1        0.1895
      8 O          23.4382   74.9831    0.7942 O.3     1  UNL1       -0.3779
      9 C          22.6482   72.9852   -0.3929 C.3     1  UNL1        0.1713
     10 C          21.3146   72.2434   -0.1787 C.3     1  UNL1        0.1764
     11 O          20.9227   72.4505    1.1891 O.3     1  UNL1       -0.3308
     12 O          22.5211   73.9692   -1.4216 O.3     1  UNL1       -0.3794
     13 H          24.3144   74.8923    0.3948 H       1  UNL1        0.2106
     14 H          23.3655   74.4375   -1.4660 H       1  UNL1        0.2105
     15 N          21.6086   73.7522    3.0733 N.ar    1  UNL1       -0.2551
     16 C          21.9611   72.6524    3.7615 C.ar    1  UNL1        0.3323
     17 N          22.0580   72.6762    5.1040 N.ar    1  UNL1       -0.2743
     18 C          21.7921   73.8095    5.7844 C.ar    1  UNL1        0.2626
     19 C          21.4141   74.9730    5.0729 C.ar    1  UNL1        0.0795
     20 C          21.3298   74.9226    3.7261 C.ar    1  UNL1        0.0869
     21 O          22.2041   71.6228    3.1620 O.2     1  UNL1       -0.2464
     22 O          21.8747   73.8309    6.9985 O.2     1  UNL1       -0.2670
     23 H          22.3182   71.8749    5.5839 H       1  UNL1        0.1734
     24 O          20.3041   69.7083   -3.9359 O.3     1  UNL1       -0.2703
     25 P          18.7877   70.2451   -3.8956 P.3     1  UNL1        0.2208
     26 O          18.7372   71.5252   -3.1556 O.2     1  UNL1       -0.5170
     27 O          17.8536   69.1617   -3.1568 O.3     1  UNL1       -0.4371
     28 O          18.2576   70.4727   -5.3982 O.3     1  UNL1       -0.2865
     29 C          18.4807   71.8484   -5.7124 C.3     1  UNL1        0.2611
     30 C          17.2577   72.4041   -6.4442 C.3     1  UNL1        0.1582
     31 C          17.0240   71.5884   -7.7208 C.3     1  UNL1        0.1625
     32 C          18.3208   71.5731   -8.5369 C.3     1  UNL1        0.1686
     33 C          19.4632   71.0771   -7.6479 C.3     1  UNL1        0.1760
     34 O          15.9786   72.1886   -8.4879 O.3     1  UNL1       -0.3801
     35 O          18.1705   70.6984   -9.6567 O.3     1  UNL1       -0.3794
     36 O          19.6341   71.9638   -6.5429 O.3     1  UNL1       -0.3263
     37 H          15.8651   71.6445   -9.2793 H       1  UNL1        0.2105
     38 H          19.0079   70.7180  -10.1414 H       1  UNL1        0.2105
     39 C          15.5876   73.4094   -4.9832 C.2     1  UNL1        0.2231
     40 C          14.3772   73.3078   -4.0904 C.3     1  UNL1        0.0946
     41 N          16.0816   72.3060   -5.5772 N.am    1  UNL1       -0.2994
     42 O          16.1173   74.4845   -5.1664 O.2     1  UNL1       -0.2751
     43 H          15.6580   71.4454   -5.4305 H       1  UNL1        0.1496
     44 C          20.7572   71.0272   -8.4630 C.3     1  UNL1        0.1693
     45 O          20.8674   72.2112   -9.2555 O.3     1  UNL1       -0.3794
     46 H          21.6937   72.1395   -9.7522 H       1  UNL1        0.2105
@<TRIPOS>BOND
     1    29    30    1
     2    29    28    1
     3    29    36    1
     4    30    31    1
     5    30    41    1
     6    31    32    1
     7    31    34    1
     8    32    33    1
     9    32    35    1
    10    33    44    1
    11    33    36    1
    12    44    45    1
    13    39    40    1
    14    39    41   am
    15    39    42    2
    16    41    43    1
    17    28    25    1
    18    34    37    1
    19    35    38    1
    20    45    46    1
    21    15    16   ar
    22    15    20   ar
    23    15     6    1
    24    16    17   ar
    25    16    21    2
    26    17    18   ar
    27    17    23    1
    28    18    19   ar
    29    18    22    2
    30    19    20   ar
    31     6     7    1
    32     6    11    1
    33     7     8    1
    34     7     9    1
    35     8    13    1
    36     9    10    1
    37     9    12    1
    38    10    11    1
    39    10     5    1
    40    12    14    1
    41     5     4    1
    42     4     1    1
    43     1     2    2
    44     1     3    1
    45     1    24    1
    46    24    25    1
    47    25    26    2
    48    25    27    1
@<TRIPOS>MOLECULE
UD1
 46 48 0 0 0
SMALL
GASTEIGER

@<TRIPOS>ATOM
      1 P          18.1651   71.1792   -2.7785 P.3     1  UNL1        0.2189
      2 O          16.8170   71.4936   -2.2564 O.2     1  UNL1       -0.5170
      3 O          18.3465   69.5819   -2.8692 O.3     1  UNL1       -0.4371
      4 O          19.2791   71.7895   -1.7888 O.3     1  UNL1       -0.3112
      5 C          20.0849   72.6747   -2.5682 C.3     1  UNL1        0.1811
      6 C          22.7139   72.3654   -0.1352 C.3     1  UNL1        0.2383
      7 C          22.3954   70.9071   -0.5501 C.3     1  UNL1        0.1895
      8 O          23.5595   70.0847   -0.4617 O.3     1  UNL1       -0.3779
      9 C          21.9495   71.0783   -2.0255 C.3     1  UNL1        0.1713
     10 C          21.5441   72.5617   -2.1244 C.3     1  UNL1        0.1764
     11 O          21.7037   73.1387   -0.8171 O.3     1  UNL1       -0.3308
     12 O          23.0324   70.7888   -2.9123 O.3     1  UNL1       -0.3794
     13 H          23.2947   69.1944   -0.7314 H       1  UNL1        0.2106
     14 H          23.2786   69.8666   -2.7606 H       1  UNL1        0.2105
     15 N          22.5988   72.5299    1.3144 N.ar    1  UNL1       -0.2551
     16 C          22.1307   71.5174    2.0648 C.ar    1  UNL1        0.3323
     17 N          22.0178   71.6393    3.4007 N.ar    1  UNL1       -0.2743
     18 C          22.3664   72.7906    4.0098 C.ar    1  UNL1        0.2626
     19 C          22.8551   73.8666    3.2311 C.ar    1  UNL1        0.0795
     20 C          22.9632   73.7154    1.8937 C.ar    1  UNL1        0.0869
     21 O          21.8122   70.4728    1.5300 O.2     1  UNL1       -0.2464
     22 O          22.2603   72.9036    5.2170 O.2     1  UNL1       -0.2670
     23 H          21.6827   70.8971    3.9269 H       1  UNL1        0.1734
     24 O          18.3374   71.8238   -4.2426 O.3     1  UNL1       -0.2703
     25 P          17.0075   71.4576   -5.0712 P.3     1  UNL1        0.2208
     26 O          15.8308   72.0592   -4.4061 O.2     1  UNL1       -0.5170
     27 O          16.8322   69.8581   -5.1266 O.3     1  UNL1       -0.4371
     28 O          17.1307   72.0346   -6.5687 O.3     1  UNL1       -0.2865
     29 C          18.0702   73.1099   -6.5225 C.3     1  UNL1        0.2611
     30 C          17.5518   74.2705   -7.3735 C.3     1  UNL1        0.1582
     31 C          17.3540   73.7862   -8.8144 C.3     1  UNL1        0.1625
     32 C          18.6612   73.1529   -9.3024 C.3     1  UNL1        0.1686
     33 C          19.0944   72.0744   -8.3072 C.3     1  UNL1        0.1760
     34 O          17.0139   74.8945   -9.6496 O.3     1  UNL1       -0.3801
     35 O          18.4563   72.5643  -10.5881 O.3     1  UNL1       -0.3794
     36 O          19.3265   72.6636   -7.0284 O.3     1  UNL1       -0.3263
     37 H          16.8987   74.5452  -10.5440 H       1  UNL1        0.2105
     38 H          19.3017   72.1775  -10.8567 H       1  UNL1        0.2105
     39 C          15.1162   74.2613   -7.3277 C.2     1  UNL1        0.2231
     40 C          13.8013   74.7462   -6.7727 C.3     1  UNL1        0.0946
     41 N          16.2741   74.7409   -6.8344 N.am    1  UNL1       -0.2994
     42 O          15.1319   73.4396   -8.2192 O.2     1  UNL1       -0.2751
     43 H          16.2619   75.3986   -6.1211 H       1  UNL1        0.1496
     44 C          20.3823   71.4130   -8.8023 C.3     1  UNL1        0.1693
     45 O          21.2569   72.4107   -9.3332 O.3     1  UNL1       -0.3794
     46 H          22.0538   71.9531   -9.6334 H       1  UNL1        0.2105
@<TRIPOS>BOND
     1    29    30    1
     2    29    28    1
     3    29    36    1
     4    30    31    1
     5    30    41    1
     6    31    32    1
     7    31    34    1
     8    32    33    1
     9    32    35    1
    10    33    44    1
    11    33    36    1
    12    44    45    1
    13    39    40    1
    14    39    41   am
    15    39    42    2
    16    41    43    1
    17    28    25    1
    18    34    37    1
    19    35    38    1
    20    45    46    1
    21    15    16   ar
    22    15    20   ar
    23    15     6    1
    24    16    17   ar
    25    16    21    2
    26    17    18   ar
    27    17    23    1
    28    18    19   ar
    29    18    22    2
    30    19    20   ar
    31     6     7    1
    32     6    11    1
    33     7     8    1
    34     7     9    1
    35     8    13    1
    36     9    10    1
    37     9    12    1
    38    10    11    1
    39    10     5    1
    40    12    14    1
    41     5     4    1
    42     4     1    1
    43     1     2    2
    44     1     3    1
    45     1    24    1
    46    24    25    1
    47    25    26    2
    48    25    27    1
@<TRIPOS>MOLECULE
UD1
 46 48 0 0 0
SMALL
GASTEIGER

@<TRIPOS>ATOM
      1 P          22.3995   71.6437   -2.8985 P.3     1  UNL1        0.2189
      2 O          21.3476   71.0193   -2.0664 O.2     1  UNL1       -0.5170
      3 O          23.4862   70.5307   -3.3142 O.3     1  UNL1       -0.4371
      4 O          23.1234   72.8121   -2.0597 O.3     1  UNL1       -0.3112
      5 C          22.1838   73.2636   -1.0831 C.3     1  UNL1        0.1811
      6 C          22.5787   73.4577    2.4853 C.3     1  UNL1        0.2383
      7 C          21.1735   72.8374    2.2834 C.3     1  UNL1        0.1895
      8 O          20.8454   71.9547    3.3569 O.3     1  UNL1       -0.3779
      9 C          21.3510   72.0536    0.9570 C.3     1  UNL1        0.1713
     10 C          22.5724   72.7163    0.2911 C.3     1  UNL1        0.1764
     11 O          22.9953   73.7934    1.1446 O.3     1  UNL1       -0.3308
     12 O          21.6057   70.6724    1.2223 O.3     1  UNL1       -0.3794
     13 H          19.9631   71.6042    3.1718 H       1  UNL1        0.2106
     14 H          20.8326   70.3309    1.6911 H       1  UNL1        0.2105
     15 N          22.5016   74.6587    3.3177 N.ar    1  UNL1       -0.2551
     16 C          22.7116   74.5659    4.6424 C.ar    1  UNL1        0.3323
     17 N          22.6508   75.6547    5.4318 N.ar    1  UNL1       -0.2743
     18 C          22.3673   76.8622    4.9032 C.ar    1  UNL1        0.2626
     19 C          22.1382   76.9733    3.5111 C.ar    1  UNL1        0.0795
     20 C          22.2106   75.8659    2.7417 C.ar    1  UNL1        0.0869
     21 O          22.9684   73.4837    5.1339 O.2     1  UNL1       -0.2464
     22 O          22.3074   77.8465    5.6167 O.2     1  UNL1       -0.2670
     23 H          22.8097   75.5701    6.3846 H       1  UNL1        0.1734
     24 O          21.7350   72.2679   -4.2243 O.3     1  UNL1       -0.2703
     25 P          20.2357   71.6898   -4.3092 P.3     1  UNL1        0.2208
     26 O          19.4501   72.1854   -3.1576 O.2     1  UNL1       -0.5170
     27 O          20.2776   70.0806   -4.2766 O.3     1  UNL1       -0.4371
     28 O          19.5471   72.1796   -5.6790 O.3     1  UNL1       -0.2865
     29 C          20.5649   72.1686   -6.6816 C.3     1  UNL1        0.2611
     30 C          20.6471   73.5503   -7.3328 C.3     1  UNL1        0.1582
     31 C          19.2861   73.8967   -7.9472 C.3     1  UNL1        0.1625
     32 C          18.8671   72.7583   -8.8835 C.3     1  UNL1        0.1686
     33 C          18.9162   71.4366   -8.1142 C.3     1  UNL1        0.1760
     34 O          19.3904   75.1151   -8.6861 O.3     1  UNL1       -0.3801
     35 O          17.5377   72.9905   -9.3530 O.3     1  UNL1       -0.3794
     36 O          20.2486   71.1881   -7.6674 O.3     1  UNL1       -0.3263
     37 H          18.5141   75.2947   -9.0538 H       1  UNL1        0.2105
     38 H          17.3143   72.2519   -9.9370 H       1  UNL1        0.2105
     39 C          22.2302   75.0901   -6.3047 C.2     1  UNL1        0.2231
     40 C          22.5899   76.1177   -5.2622 C.3     1  UNL1        0.0946
     41 N          20.9968   74.5491   -6.3206 N.am    1  UNL1       -0.2994
     42 O          23.0516   74.7496   -7.1291 O.2     1  UNL1       -0.2751
     43 H          20.3394   74.8212   -5.6609 H       1  UNL1        0.1496
     44 C          18.4681   70.2970   -9.0316 C.3     1  UNL1        0.1693
     45 O          18.8207   70.6051  -10.3818 O.3     1  UNL1       -0.3794
     46 H          18.5212   69.8638  -10.9253 H       1  UNL1        0.2105
@<TRIPOS>BOND
     1    29    30    1
     2    29    28    1
     3    29    36    1
     4    30    31    1
     5    30    41    1
     6    31    32    1
     7    31    34    1
     8    32    33    1
     9    32    35    1
    10    33    44    1
    11    33    36    1
    12    44    45    1
    13    39    40    1
    14    39    41   am
    15    39    42    2
    16    41    43    1
    17    28    25    1
    18    34    37    1
    19    35    38    1
    20    45    46    1
    21    15    16   ar
    22    15    20   ar
    23    15     6    1
    24    16    17   ar
    25    16    21    2
    26    17    18   ar
    27    17    23    1
    28    18    19   ar
    29    18    22    2
    30    19    20   ar
    31     6     7    1
    32     6    11    1
    33     7     8    1
    34     7     9    1
    35     8    13    1
    36     9    10    1
    37     9    12    1
    38    10    11    1
    39    10     5    1
    40    12    14    1
    41     5     4    1
    42     4     1    1
    43     1     2    2
    44     1     3    1
    45     1    24    1
    46    24    25    1
    47    25    26    2
    48    25    27    1
