@<TRIPOS>MOLECULE
UD1
 46 48 0 0 0
SMALL
GASTEIGER

@<TRIPOS>ATOM
      1 P          21.7414   70.8818   -2.5041 P.3     1  UNL1        0.2189
      2 O          23.2042   70.9995   -2.6916 O.2     1  UNL1       -0.5170
      3 O          21.3103   69.3336   -2.6038 O.3     1  UNL1       -0.4371
      4 O          20.9847   71.7233   -3.6495 O.3     1  UNL1       -0.3112
      5 C          19.9449   72.4595   -3.0036 C.3     1  UNL1        0.1811
      6 C          17.9137   71.3432   -5.7522 C.3     1  UNL1        0.2383
      7 C          17.9973   70.1174   -4.8084 C.3     1  UNL1        0.1895
      8 O          16.8133   69.3237   -4.8953 O.3     1  UNL1       -0.3779
      9 C          18.1135   70.7871   -3.4144 C.3     1  UNL1        0.1713
     10 C          18.6188   72.2097   -3.7235 C.3     1  UNL1        0.1764
     11 O          18.8103   72.2980   -5.1457 O.3     1  UNL1       -0.3308
     12 O          16.8372   70.8311   -2.7725 O.3     1  UNL1       -0.3794
     13 H          16.9290   68.5806   -4.2872 H       1  UNL1        0.2106
     14 H          16.5490   69.9153   -2.6611 H       1  UNL1        0.2105
     15 N          18.3663   70.9934   -7.0991 N.ar    1  UNL1       -0.2551
     16 C          17.4675   70.6317   -8.0311 C.ar    1  UNL1        0.3323
     17 N          17.8550   70.3086   -9.2792 N.ar    1  UNL1       -0.2743
     18 C          19.1610   70.3342   -9.6133 C.ar    1  UNL1        0.2626
     19 C          20.1184   70.7074   -8.6402 C.ar    1  UNL1        0.0795
     20 C          19.7018   71.0319   -7.3974 C.ar    1  UNL1        0.0869
     21 O          16.2860   70.6038   -7.7451 O.2     1  UNL1       -0.2464
     22 O          19.5129   70.0377  -10.7401 O.2     1  UNL1       -0.2670
     23 H          17.1926   70.0546   -9.9402 H       1  UNL1        0.1734
     24 O          21.3374   71.4603   -1.0581 O.3     1  UNL1       -0.2703
     25 P          22.2795   70.7223    0.0176 P.3     1  UNL1        0.2208
     26 O          23.5526   70.3321   -0.6273 O.2     1  UNL1       -0.5170
     27 O          21.5344   69.4071    0.5718 O.3     1  UNL1       -0.4371
     28 O          22.5827   71.7216    1.2423 O.3     1  UNL1       -0.2865
     29 C          21.7926   72.8924    1.0273 C.3     1  UNL1        0.2611
     30 C          22.7048   74.0481    0.6122 C.3     1  UNL1        0.1582
     31 C          23.7412   74.2898    1.7155 C.3     1  UNL1        0.1625
     32 C          23.0051   74.4853    3.0451 C.3     1  UNL1        0.1686
     33 C          22.0724   73.2949    3.2782 C.3     1  UNL1        0.1760
     34 O          24.5026   75.4594    1.4093 O.3     1  UNL1       -0.3801
     35 O          23.9547   74.5658    4.1098 O.3     1  UNL1       -0.3794
     36 O          21.1053   73.2279    2.2308 O.3     1  UNL1       -0.3263
     37 H          25.1406   75.5732    2.1271 H       1  UNL1        0.2105
     38 H          23.4498   74.6877    4.9263 H       1  UNL1        0.2105
     39 C          23.4957   74.6244   -1.6186 C.2     1  UNL1        0.2231
     40 C          24.1992   74.2737   -2.9048 C.3     1  UNL1        0.0946
     41 N          23.3886   73.7080   -0.6372 N.am    1  UNL1       -0.2994
     42 O          23.0253   75.7316   -1.4673 O.2     1  UNL1       -0.2751
     43 H          23.7648   72.8218   -0.7582 H       1  UNL1        0.1496
     44 C          21.3563   73.4646    4.6196 C.3     1  UNL1        0.1693
     45 O          22.0024   72.6620    5.6098 O.3     1  UNL1       -0.3794
     46 H          21.5212   72.7975    6.4374 H       1  UNL1        0.2105
@<TRIPOS>BOND
     1    29    30    1
     2    29    28    1
     3    29    36    1
     4    30    31    1
     5    30    41    1
     6    31    32    1
     7    31    34    1
     8    32    33    1
     9    32    35    1
    10    33    44    1
    11    33    36    1
    12    44    45    1
    13    39    40    1
    14    39    41   am
    15    39    42    2
    16    41    43    1
    17    28    25    1
    18    34    37    1
    19    35    38    1
    20    45    46    1
    21    15    16   ar
    22    15    20   ar
    23    15     6    1
    24    16    17   ar
    25    16    21    2
    26    17    18   ar
    27    17    23    1
    28    18    19   ar
    29    18    22    2
    30    19    20   ar
    31     6     7    1
    32     6    11    1
    33     7     8    1
    34     7     9    1
    35     8    13    1
    36     9    10    1
    37     9    12    1
    38    10    11    1
    39    10     5    1
    40    12    14    1
    41     5     4    1
    42     4     1    1
    43     1     2    2
    44     1     3    1
    45     1    24    1
    46    24    25    1
    47    25    26    2
    48    25    27    1
@<TRIPOS>MOLECULE
UD1
 46 48 0 0 0
SMALL
GASTEIGER

@<TRIPOS>ATOM
      1 P          21.9933   70.4361   -0.3821 P.3     1  UNL1        0.2189
      2 O          22.9269   71.2368   -1.2043 O.2     1  UNL1       -0.5170
      3 O          22.7706   69.1649    0.2283 O.3     1  UNL1       -0.4371
      4 O          20.7721   69.9270   -1.2999 O.3     1  UNL1       -0.3112
      5 C          20.9534   70.5107   -2.5910 C.3     1  UNL1        0.1811
      6 C          18.4480   71.0235   -5.1183 C.3     1  UNL1        0.2383
      7 C          18.0369   69.6993   -4.4272 C.3     1  UNL1        0.1895
      8 O          16.6195   69.5275   -4.4536 O.3     1  UNL1       -0.3779
      9 C          18.5409   69.9187   -2.9770 C.3     1  UNL1        0.1713
     10 C          19.6097   71.0200   -3.1147 C.3     1  UNL1        0.1764
     11 O          19.7192   71.3401   -4.5121 O.3     1  UNL1       -0.3308
     12 O          17.4704   70.3537   -2.1358 O.3     1  UNL1       -0.3794
     13 H          16.4306   68.6888   -4.0104 H       1  UNL1        0.2106
     14 H          16.8092   69.6488   -2.1383 H       1  UNL1        0.2105
     15 N          18.5978   70.8316   -6.5613 N.ar    1  UNL1       -0.2551
     16 C          17.5075   70.8123   -7.3476 C.ar    1  UNL1        0.3323
     17 N          17.6157   70.6415   -8.6785 N.ar    1  UNL1       -0.2743
     18 C          18.8275   70.4768   -9.2461 C.ar    1  UNL1        0.2626
     19 C          19.9832   70.4891   -8.4294 C.ar    1  UNL1        0.0795
     20 C          19.8464   70.6676   -7.0979 C.ar    1  UNL1        0.0869
     21 O          16.4076   70.9596   -6.8504 O.2     1  UNL1       -0.2464
     22 O          18.9262   70.3176  -10.4488 O.2     1  UNL1       -0.2670
     23 H          16.8190   70.6350   -9.2311 H       1  UNL1        0.1734
     24 O          21.4211   71.3431    0.8173 O.3     1  UNL1       -0.2703
     25 P          21.4602   72.8684    0.3061 P.3     1  UNL1        0.2208
     26 O          20.2160   73.1723   -0.4345 O.2     1  UNL1       -0.5170
     27 O          22.7269   73.0772   -0.6655 O.3     1  UNL1       -0.4371
     28 O          21.5869   73.8563    1.5704 O.3     1  UNL1       -0.2865
     29 C          20.5141   73.5343    2.4573 C.3     1  UNL1        0.2611
     30 C          19.6727   74.7869    2.7080 C.3     1  UNL1        0.1582
     31 C          20.5649   75.8775    3.3115 C.3     1  UNL1        0.1625
     32 C          21.2687   75.3067    4.5472 C.3     1  UNL1        0.1686
     33 C          21.9924   74.0163    4.1569 C.3     1  UNL1        0.1760
     34 O          19.7627   76.9983    3.6882 O.3     1  UNL1       -0.3801
     35 O          22.2153   76.2570    5.0396 O.3     1  UNL1       -0.3794
     36 O          21.0463   73.0552    3.6904 O.3     1  UNL1       -0.3263
     37 H          20.3628   77.6584    4.0617 H       1  UNL1        0.2105
     38 H          22.6349   75.8579    5.8149 H       1  UNL1        0.2105
     39 C          17.7735   75.3593    1.2939 C.2     1  UNL1        0.2231
     40 C          17.1931   75.8454   -0.0096 C.3     1  UNL1        0.0946
     41 N          19.1085   75.2596    1.4420 N.am    1  UNL1       -0.2994
     42 O          17.0383   75.0571    2.2096 O.2     1  UNL1       -0.2751
     43 H          19.6970   75.5011    0.7093 H       1  UNL1        0.1496
     44 C          22.7257   73.4553    5.3771 C.3     1  UNL1        0.1693
     45 O          22.0061   73.7955    6.5639 O.3     1  UNL1       -0.3794
     46 H          22.5008   73.4245    7.3071 H       1  UNL1        0.2105
@<TRIPOS>BOND
     1    29    30    1
     2    29    28    1
     3    29    36    1
     4    30    31    1
     5    30    41    1
     6    31    32    1
     7    31    34    1
     8    32    33    1
     9    32    35    1
    10    33    44    1
    11    33    36    1
    12    44    45    1
    13    39    40    1
    14    39    41   am
    15    39    42    2
    16    41    43    1
    17    28    25    1
    18    34    37    1
    19    35    38    1
    20    45    46    1
    21    15    16   ar
    22    15    20   ar
    23    15     6    1
    24    16    17   ar
    25    16    21    2
    26    17    18   ar
    27    17    23    1
    28    18    19   ar
    29    18    22    2
    30    19    20   ar
    31     6     7    1
    32     6    11    1
    33     7     8    1
    34     7     9    1
    35     8    13    1
    36     9    10    1
    37     9    12    1
    38    10    11    1
    39    10     5    1
    40    12    14    1
    41     5     4    1
    42     4     1    1
    43     1     2    2
    44     1     3    1
    45     1    24    1
    46    24    25    1
    47    25    26    2
    48    25    27    1
@<TRIPOS>MOLECULE
UD1
 46 48 0 0 0
SMALL
GASTEIGER

@<TRIPOS>ATOM
      1 P          21.8871   71.0251   -0.5363 P.3     1  UNL1        0.2189
      2 O          22.7517   70.5440   -1.6361 O.2     1  UNL1       -0.5170
      3 O          21.4695   69.7837    0.4004 O.3     1  UNL1       -0.4371
      4 O          20.5617   71.7006   -1.1526 O.3     1  UNL1       -0.3112
      5 C          20.6294   71.5278   -2.5689 C.3     1  UNL1        0.1811
      6 C          18.1876   71.2343   -5.1916 C.3     1  UNL1        0.2383
      7 C          18.0657   69.9095   -4.3977 C.3     1  UNL1        0.1895
      8 O          16.7298   69.4072   -4.4435 O.3     1  UNL1       -0.3779
      9 C          18.4402   70.3556   -2.9604 C.3     1  UNL1        0.1713
     10 C          19.2286   71.6632   -3.1677 C.3     1  UNL1        0.1764
     11 O          19.3222   71.8884   -4.5847 O.3     1  UNL1       -0.3308
     12 O          17.2619   70.5915   -2.1867 O.3     1  UNL1       -0.3794
     13 H          16.7218   68.5854   -3.9335 H       1  UNL1        0.2106
     14 H          16.7835   69.7528   -2.1437 H       1  UNL1        0.2105
     15 N          18.4415   70.9694   -6.6082 N.ar    1  UNL1       -0.2551
     16 C          17.4072   70.8233   -7.4546 C.ar    1  UNL1        0.3323
     17 N          17.6111   70.5830   -8.7633 N.ar    1  UNL1       -0.2743
     18 C          18.8650   70.4751   -9.2471 C.ar    1  UNL1        0.2626
     19 C          19.9629   70.6208   -8.3661 C.ar    1  UNL1        0.0795
     20 C          19.7299   70.8667   -7.0590 C.ar    1  UNL1        0.0869
     21 O          16.2704   70.9179   -7.0334 O.2     1  UNL1       -0.2464
     22 O          19.0505   70.2531  -10.4293 O.2     1  UNL1       -0.2670
     23 H          16.8534   70.4851   -9.3604 H       1  UNL1        0.1734
     24 O          22.6868   72.1133    0.3383 O.3     1  UNL1       -0.2703
     25 P          21.6267   72.7543    1.3653 P.3     1  UNL1        0.2208
     26 O          21.1932   71.7234    2.3339 O.2     1  UNL1       -0.5170
     27 O          20.3481   73.2950    0.5499 O.3     1  UNL1       -0.4371
     28 O          22.3142   73.9769    2.1547 O.3     1  UNL1       -0.2865
     29 C          22.6340   73.4984    3.4623 C.3     1  UNL1        0.2611
     30 C          21.8325   74.2877    4.4990 C.3     1  UNL1        0.1582
     31 C          22.1738   75.7764    4.3691 C.3     1  UNL1        0.1625
     32 C          23.6947   75.9401    4.4582 C.3     1  UNL1        0.1686
     33 C          24.3557   75.0283    3.4224 C.3     1  UNL1        0.1760
     34 O          21.5475   76.5052    5.4264 O.3     1  UNL1       -0.3801
     35 O          24.0454   77.2997    4.1933 O.3     1  UNL1       -0.3794
     36 O          24.0298   73.6671    3.7005 O.3     1  UNL1       -0.3263
     37 H          21.7880   77.4342    5.3060 H       1  UNL1        0.2105
     38 H          25.0091   77.3579    4.2588 H       1  UNL1        0.2105
     39 C          19.5592   73.9523    5.3076 C.2     1  UNL1        0.2231
     40 C          18.0852   73.7488    5.0661 C.3     1  UNL1        0.0946
     41 N          20.4005   74.0904    4.2649 N.am    1  UNL1       -0.2994
     42 O          19.9881   73.9912    6.4411 O.2     1  UNL1       -0.2751
     43 H          20.0575   74.0591    3.3577 H       1  UNL1        0.1496
     44 C          25.8740   75.2085    3.4811 C.3     1  UNL1        0.1693
     45 O          26.2846   75.3542    4.8421 O.3     1  UNL1       -0.3794
     46 H          27.2449   75.4652    4.8343 H       1  UNL1        0.2105
@<TRIPOS>BOND
     1    29    30    1
     2    29    28    1
     3    29    36    1
     4    30    31    1
     5    30    41    1
     6    31    32    1
     7    31    34    1
     8    32    33    1
     9    32    35    1
    10    33    44    1
    11    33    36    1
    12    44    45    1
    13    39    40    1
    14    39    41   am
    15    39    42    2
    16    41    43    1
    17    28    25    1
    18    34    37    1
    19    35    38    1
    20    45    46    1
    21    15    16   ar
    22    15    20   ar
    23    15     6    1
    24    16    17   ar
    25    16    21    2
    26    17    18   ar
    27    17    23    1
    28    18    19   ar
    29    18    22    2
    30    19    20   ar
    31     6     7    1
    32     6    11    1
    33     7     8    1
    34     7     9    1
    35     8    13    1
    36     9    10    1
    37     9    12    1
    38    10    11    1
    39    10     5    1
    40    12    14    1
    41     5     4    1
    42     4     1    1
    43     1     2    2
    44     1     3    1
    45     1    24    1
    46    24    25    1
    47    25    26    2
    48    25    27    1
@<TRIPOS>MOLECULE
UD1
 46 48 0 0 0
SMALL
GASTEIGER

@<TRIPOS>ATOM
      1 P          21.8245   70.3835   -0.4568 P.3     1  UNL1        0.2189
      2 O          23.1386   70.6902   -1.0634 O.2     1  UNL1       -0.5170
      3 O          21.9916   69.1895    0.6105 O.3     1  UNL1       -0.4371
      4 O          20.7944   69.9318   -1.6090 O.3     1  UNL1       -0.3112
      5 C          20.9096   70.8870   -2.6648 C.3     1  UNL1        0.1811
      6 C          18.3646   71.0598   -5.1987 C.3     1  UNL1        0.2383
      7 C          18.1046   69.7129   -4.4786 C.3     1  UNL1        0.1895
      8 O          16.7156   69.3821   -4.4991 O.3     1  UNL1       -0.3779
      9 C          18.5794   70.0189   -3.0343 C.3     1  UNL1        0.1713
     10 C          19.5175   71.2304   -3.1973 C.3     1  UNL1        0.1764
     11 O          19.5915   71.5306   -4.6014 O.3     1  UNL1       -0.3308
     12 O          17.4660   70.3486   -2.2009 O.3     1  UNL1       -0.3794
     13 H          16.6220   68.5373   -4.0377 H       1  UNL1        0.2106
     14 H          16.8883   69.5739   -2.1872 H       1  UNL1        0.2105
     15 N          18.5363   70.8550   -6.6374 N.ar    1  UNL1       -0.2551
     16 C          17.4556   70.7840   -7.4340 C.ar    1  UNL1        0.3323
     17 N          17.5838   70.6002   -8.7614 N.ar    1  UNL1       -0.2743
     18 C          18.8068   70.4742   -9.3149 C.ar    1  UNL1        0.2626
     19 C          19.9527   70.5410   -8.4871 C.ar    1  UNL1        0.0795
     20 C          19.7956   70.7315   -7.1596 C.ar    1  UNL1        0.0869
     21 O          16.3459   70.8959   -6.9496 O.2     1  UNL1       -0.2464
     22 O          18.9237   70.3031  -10.5143 O.2     1  UNL1       -0.2670
     23 H          16.7936   70.5562   -9.3216 H       1  UNL1        0.1734
     24 O          21.2577   71.6933    0.2862 O.3     1  UNL1       -0.2703
     25 P          22.0320   71.8017    1.6926 P.3     1  UNL1        0.2208
     26 O          22.8322   70.5766    1.9107 O.2     1  UNL1       -0.5170
     27 O          20.9615   71.9617    2.8845 O.3     1  UNL1       -0.4371
     28 O          23.0064   73.0826    1.6729 O.3     1  UNL1       -0.2865
     29 C          22.2220   74.2063    2.0767 C.3     1  UNL1        0.2611
     30 C          22.4905   75.3764    1.1286 C.3     1  UNL1        0.1582
     31 C          23.9843   75.7182    1.1648 C.3     1  UNL1        0.1625
     32 C          24.3987   75.9510    2.6216 C.3     1  UNL1        0.1686
     33 C          23.9889   74.7360    3.4565 C.3     1  UNL1        0.1760
     34 O          24.2234   76.9015    0.4005 O.3     1  UNL1       -0.3801
     35 O          25.8149   76.1263    2.6934 O.3     1  UNL1       -0.3794
     36 O          22.5718   74.5743    3.4092 O.3     1  UNL1       -0.3263
     37 H          25.1727   77.0791    0.4502 H       1  UNL1        0.2105
     38 H          26.0322   76.2688    3.6256 H       1  UNL1        0.2105
     39 C          23.0189   74.4732   -1.0711 C.2     1  UNL1        0.2231
     40 C          22.6226   74.0878   -2.4735 C.3     1  UNL1        0.0946
     41 N          22.1058   75.0014   -0.2336 N.am    1  UNL1       -0.2994
     42 O          24.1603   74.3083   -0.6967 O.2     1  UNL1       -0.2751
     43 H          21.1924   75.1337   -0.5331 H       1  UNL1        0.1496
     44 C          24.4275   74.9444    4.9075 C.3     1  UNL1        0.1693
     45 O          25.7779   74.5044    5.0652 O.3     1  UNL1       -0.3794
     46 H          26.0141   74.6525    5.9909 H       1  UNL1        0.2105
@<TRIPOS>BOND
     1    29    30    1
     2    29    28    1
     3    29    36    1
     4    30    31    1
     5    30    41    1
     6    31    32    1
     7    31    34    1
     8    32    33    1
     9    32    35    1
    10    33    44    1
    11    33    36    1
    12    44    45    1
    13    39    40    1
    14    39    41   am
    15    39    42    2
    16    41    43    1
    17    28    25    1
    18    34    37    1
    19    35    38    1
    20    45    46    1
    21    15    16   ar
    22    15    20   ar
    23    15     6    1
    24    16    17   ar
    25    16    21    2
    26    17    18   ar
    27    17    23    1
    28    18    19   ar
    29    18    22    2
    30    19    20   ar
    31     6     7    1
    32     6    11    1
    33     7     8    1
    34     7     9    1
    35     8    13    1
    36     9    10    1
    37     9    12    1
    38    10    11    1
    39    10     5    1
    40    12    14    1
    41     5     4    1
    42     4     1    1
    43     1     2    2
    44     1     3    1
    45     1    24    1
    46    24    25    1
    47    25    26    2
    48    25    27    1
@<TRIPOS>MOLECULE
UD1
 46 48 0 0 0
SMALL
GASTEIGER

@<TRIPOS>ATOM
      1 P          21.9689   70.8622   -0.6217 P.3     1  UNL1        0.2189
      2 O          22.7672   70.3326   -1.7490 O.2     1  UNL1       -0.5170
      3 O          21.5648   69.6546    0.3638 O.3     1  UNL1       -0.4371
      4 O          20.6334   71.5587   -1.1910 O.3     1  UNL1       -0.3112
      5 C          20.6858   71.4523   -2.6145 C.3     1  UNL1        0.1811
      6 C          18.2049   71.2008   -5.2048 C.3     1  UNL1        0.2383
      7 C          18.0952   69.8631   -4.4309 C.3     1  UNL1        0.1895
      8 O          16.7587   69.3611   -4.4649 O.3     1  UNL1       -0.3779
      9 C          18.4912   70.2858   -2.9923 C.3     1  UNL1        0.1713
     10 C          19.2761   71.5970   -3.1899 C.3     1  UNL1        0.1764
     11 O          19.3484   71.8454   -4.6043 O.3     1  UNL1       -0.3308
     12 O          17.3245   70.5085   -2.1972 O.3     1  UNL1       -0.3794
     13 H          16.7585   68.5311   -3.9684 H       1  UNL1        0.2106
     14 H          16.8470   69.6690   -2.1608 H       1  UNL1        0.2105
     15 N          18.4376   70.9593   -6.6292 N.ar    1  UNL1       -0.2551
     16 C          17.3907   70.8232   -7.4616 C.ar    1  UNL1        0.3323
     17 N          17.5749   70.6044   -8.7770 N.ar    1  UNL1       -0.2743
     18 C          18.8215   70.5083   -9.2818 C.ar    1  UNL1        0.2626
     19 C          19.9326   70.6436   -8.4157 C.ar    1  UNL1        0.0795
     20 C          19.7191   70.8680   -7.1014 C.ar    1  UNL1        0.0869
     21 O          16.2603   70.9074   -7.0214 O.2     1  UNL1       -0.2464
     22 O          18.9892   70.3057  -10.4701 O.2     1  UNL1       -0.2670
     23 H          16.8083   70.5135   -9.3637 H       1  UNL1        0.1734
     24 O          22.8373   71.9485    0.1873 O.3     1  UNL1       -0.2703
     25 P          21.8639   72.5889    1.2971 P.3     1  UNL1        0.2208
     26 O          21.0653   71.5165    1.9304 O.2     1  UNL1       -0.5170
     27 O          20.8762   73.6505    0.5973 O.3     1  UNL1       -0.4371
     28 O          22.7444   73.3357    2.4185 O.3     1  UNL1       -0.2865
     29 C          22.4666   74.7322    2.3014 C.3     1  UNL1        0.2611
     30 C          23.7807   75.4955    2.1267 C.3     1  UNL1        0.1582
     31 C          24.6833   75.2228    3.3352 C.3     1  UNL1        0.1625
     32 C          23.9037   75.5506    4.6131 C.3     1  UNL1        0.1686
     33 C          22.5815   74.7805    4.6016 C.3     1  UNL1        0.1760
     34 O          25.8492   76.0450    3.2574 O.3     1  UNL1       -0.3801
     35 O          24.6728   75.1655    5.7541 O.3     1  UNL1       -0.3794
     36 O          21.7990   75.1829    3.4781 O.3     1  UNL1       -0.3263
     37 H          26.3872   75.8411    4.0348 H       1  UNL1        0.2105
     38 H          24.1459   75.3883    6.5347 H       1  UNL1        0.2105
     39 C          25.0225   75.9445    0.0796 C.2     1  UNL1        0.2231
     40 C          25.7102   75.4817   -1.1794 C.3     1  UNL1        0.0946
     41 N          24.4493   75.0464    0.9038 N.am    1  UNL1       -0.2994
     42 O          24.9846   77.1257    0.3506 O.2     1  UNL1       -0.2751
     43 H          24.4794   74.1011    0.6870 H       1  UNL1        0.1496
     44 C          21.8096   75.0759    5.8893 C.3     1  UNL1        0.1693
     45 O          22.1626   74.1162    6.8875 O.3     1  UNL1       -0.3794
     46 H          21.6554   74.3375    7.6802 H       1  UNL1        0.2105
@<TRIPOS>BOND
     1    29    30    1
     2    29    28    1
     3    29    36    1
     4    30    31    1
     5    30    41    1
     6    31    32    1
     7    31    34    1
     8    32    33    1
     9    32    35    1
    10    33    44    1
    11    33    36    1
    12    44    45    1
    13    39    40    1
    14    39    41   am
    15    39    42    2
    16    41    43    1
    17    28    25    1
    18    34    37    1
    19    35    38    1
    20    45    46    1
    21    15    16   ar
    22    15    20   ar
    23    15     6    1
    24    16    17   ar
    25    16    21    2
    26    17    18   ar
    27    17    23    1
    28    18    19   ar
    29    18    22    2
    30    19    20   ar
    31     6     7    1
    32     6    11    1
    33     7     8    1
    34     7     9    1
    35     8    13    1
    36     9    10    1
    37     9    12    1
    38    10    11    1
    39    10     5    1
    40    12    14    1
    41     5     4    1
    42     4     1    1
    43     1     2    2
    44     1     3    1
    45     1    24    1
    46    24    25    1
    47    25    26    2
    48    25    27    1
@<TRIPOS>MOLECULE
UD1
 46 48 0 0 0
SMALL
GASTEIGER

@<TRIPOS>ATOM
      1 P          21.9978   70.5101   -0.2986 P.3     1  UNL1        0.2189
      2 O          22.7266   71.5846   -1.0077 O.2     1  UNL1       -0.5170
      3 O          23.0365   69.3672    0.1569 O.3     1  UNL1       -0.4371
      4 O          20.8952   69.8705   -1.2824 O.3     1  UNL1       -0.3112
      5 C          21.0338   70.5283   -2.5428 C.3     1  UNL1        0.1811
      6 C          18.4698   70.9873   -5.0212 C.3     1  UNL1        0.2383
      7 C          18.1330   69.6264   -4.3617 C.3     1  UNL1        0.1895
      8 O          16.7253   69.3870   -4.3739 O.3     1  UNL1       -0.3779
      9 C          18.6471   69.8307   -2.9128 C.3     1  UNL1        0.1713
     10 C          19.6596   70.9859   -3.0342 C.3     1  UNL1        0.1764
     11 O          19.7331   71.3486   -4.4235 O.3     1  UNL1       -0.3308
     12 O          17.5694   70.1904   -2.0456 O.3     1  UNL1       -0.3794
     13 H          16.5835   68.5284   -3.9517 H       1  UNL1        0.2106
     14 H          16.9429   69.4546   -2.0588 H       1  UNL1        0.2105
     15 N          18.6074   70.8420   -6.4708 N.ar    1  UNL1       -0.2551
     16 C          17.5103   70.8435   -7.2477 C.ar    1  UNL1        0.3323
     17 N          17.6072   70.7156   -8.5843 N.ar    1  UNL1       -0.2743
     18 C          18.8146   70.5737   -9.1675 C.ar    1  UNL1        0.2626
     19 C          19.9774   70.5645   -8.3609 C.ar    1  UNL1        0.0795
     20 C          19.8518   70.6999   -7.0233 C.ar    1  UNL1        0.0869
     21 O          16.4143   70.9706   -6.7365 O.2     1  UNL1       -0.2464
     22 O          18.9031   70.4532  -10.3754 O.2     1  UNL1       -0.2670
     23 H          16.8057   70.7236   -9.1298 H       1  UNL1        0.1734
     24 O          21.2687   71.1218    0.9987 O.3     1  UNL1       -0.2703
     25 P          21.3706   72.7232    0.8775 P.3     1  UNL1        0.2208
     26 O          20.7608   73.1610   -0.3974 O.2     1  UNL1       -0.5170
     27 O          22.9178   73.1673    0.9118 O.3     1  UNL1       -0.4371
     28 O          20.5902   73.4066    2.1081 O.3     1  UNL1       -0.2865
     29 C          20.9282   74.7946    2.0937 C.3     1  UNL1        0.2611
     30 C          21.3887   75.2169    3.4900 C.3     1  UNL1        0.1582
     31 C          20.2619   74.9447    4.4930 C.3     1  UNL1        0.1625
     32 C          18.9849   75.6284    3.9930 C.3     1  UNL1        0.1686
     33 C          18.7041   75.1727    2.5596 C.3     1  UNL1        0.1760
     34 O          20.6216   75.4709    5.7717 O.3     1  UNL1       -0.3801
     35 O          17.8883   75.2667    4.8345 O.3     1  UNL1       -0.3794
     36 O          19.7853   75.5567    1.7110 O.3     1  UNL1       -0.3263
     37 H          19.8868   75.2778    6.3701 H       1  UNL1        0.2105
     38 H          17.1066   75.7171    4.4844 H       1  UNL1        0.2105
     39 C          23.7070   75.0878    4.2267 C.2     1  UNL1        0.2231
     40 C          24.9303   74.2968    4.6142 C.3     1  UNL1        0.0946
     41 N          22.5771   74.4489    3.8670 N.am    1  UNL1       -0.2994
     42 O          23.7400   76.2998    4.2381 O.2     1  UNL1       -0.2751
     43 H          22.5506   73.4790    3.8575 H       1  UNL1        0.1496
     44 C          17.4125   75.8250    2.0622 C.3     1  UNL1        0.1693
     45 O          16.2881   75.1462    2.6252 O.3     1  UNL1       -0.3794
     46 H          15.4970   75.5871    2.2871 H       1  UNL1        0.2105
@<TRIPOS>BOND
     1    29    30    1
     2    29    28    1
     3    29    36    1
     4    30    31    1
     5    30    41    1
     6    31    32    1
     7    31    34    1
     8    32    33    1
     9    32    35    1
    10    33    44    1
    11    33    36    1
    12    44    45    1
    13    39    40    1
    14    39    41   am
    15    39    42    2
    16    41    43    1
    17    28    25    1
    18    34    37    1
    19    35    38    1
    20    45    46    1
    21    15    16   ar
    22    15    20   ar
    23    15     6    1
    24    16    17   ar
    25    16    21    2
    26    17    18   ar
    27    17    23    1
    28    18    19   ar
    29    18    22    2
    30    19    20   ar
    31     6     7    1
    32     6    11    1
    33     7     8    1
    34     7     9    1
    35     8    13    1
    36     9    10    1
    37     9    12    1
    38    10    11    1
    39    10     5    1
    40    12    14    1
    41     5     4    1
    42     4     1    1
    43     1     2    2
    44     1     3    1
    45     1    24    1
    46    24    25    1
    47    25    26    2
    48    25    27    1
@<TRIPOS>MOLECULE
UD1
 46 48 0 0 0
SMALL
GASTEIGER

@<TRIPOS>ATOM
      1 P          22.3175   74.2252   -5.7269 P.3     1  UNL1        0.2189
      2 O          23.3633   75.2506   -5.9361 O.2     1  UNL1       -0.5170
      3 O          22.8280   72.8121   -6.3057 O.3     1  UNL1       -0.4371
      4 O          20.9735   74.6653   -6.4968 O.3     1  UNL1       -0.3112
      5 C          21.0469   74.1073   -7.8096 C.3     1  UNL1        0.1811
      6 C          18.5292   71.7120   -6.8870 C.3     1  UNL1        0.2383
      7 C          17.8858   73.0882   -6.5828 C.3     1  UNL1        0.1895
      8 O          16.4688   73.0386   -6.7525 O.3     1  UNL1       -0.3779
      9 C          18.5401   73.9977   -7.6551 C.3     1  UNL1        0.1713
     10 C          19.8158   73.2362   -8.0641 C.3     1  UNL1        0.1764
     11 O          19.8832   72.0471   -7.2586 O.3     1  UNL1       -0.3308
     12 O          17.6661   74.1600   -8.7743 O.3     1  UNL1       -0.3794
     13 H          16.1311   73.9217   -6.5485 H       1  UNL1        0.2106
     14 H          16.8646   74.5867   -8.4432 H       1  UNL1        0.2105
     15 N          18.5164   70.8585   -5.6984 N.ar    1  UNL1       -0.2551
     16 C          17.4543   70.0711   -5.4550 C.ar    1  UNL1        0.3323
     17 N          17.4169   69.2729   -4.3715 N.ar    1  UNL1       -0.2743
     18 C          18.4479   69.2580   -3.5028 C.ar    1  UNL1        0.2626
     19 C          19.5697   70.0865   -3.7437 C.ar    1  UNL1        0.0795
     20 C          19.5834   70.8733   -4.8410 C.ar    1  UNL1        0.0869
     21 O          16.5167   70.0734   -6.2293 O.2     1  UNL1       -0.2464
     22 O          18.4132   68.5403   -2.5203 O.2     1  UNL1       -0.2670
     23 H          16.6449   68.7079   -4.2141 H       1  UNL1        0.1734
     24 O          22.0124   74.0831   -4.1535 O.3     1  UNL1       -0.2703
     25 P          23.2395   73.2615   -3.5144 P.3     1  UNL1        0.2208
     26 O          24.5175   73.8723   -3.9415 O.2     1  UNL1       -0.5170
     27 O          23.1820   71.7328   -4.0162 O.3     1  UNL1       -0.4371
     28 O          23.1356   73.3020   -1.9087 O.3     1  UNL1       -0.2865
     29 C          21.7473   73.3983   -1.5855 C.3     1  UNL1        0.2611
     30 C          21.5784   74.2672   -0.3378 C.3     1  UNL1        0.1582
     31 C          22.3613   73.6387    0.8204 C.3     1  UNL1        0.1625
     32 C          21.9186   72.1800    0.9768 C.3     1  UNL1        0.1686
     33 C          22.0649   71.4678   -0.3695 C.3     1  UNL1        0.1760
     34 O          22.0914   74.3564    2.0260 O.3     1  UNL1       -0.3801
     35 O          22.7384   71.5338    1.9525 O.3     1  UNL1       -0.3794
     36 O          21.2264   72.0939   -1.3398 O.3     1  UNL1       -0.3263
     37 H          22.6030   73.9285    2.7264 H       1  UNL1        0.2105
     38 H          22.4268   70.6200    2.0187 H       1  UNL1        0.2105
     39 C          23.3690   75.9185   -0.3045 C.2     1  UNL1        0.2231
     40 C          23.8971   77.3035   -0.5786 C.3     1  UNL1        0.0946
     41 N          22.0920   75.6123   -0.6044 N.am    1  UNL1       -0.2994
     42 O          24.0936   75.0796    0.1868 O.2     1  UNL1       -0.2751
     43 H          21.5119   76.2836   -0.9973 H       1  UNL1        0.1496
     44 C          21.6559   70.0013   -0.2163 C.3     1  UNL1        0.1693
     45 O          22.7556   69.2515    0.3038 O.3     1  UNL1       -0.3794
     46 H          22.4566   68.3357    0.3844 H       1  UNL1        0.2105
@<TRIPOS>BOND
     1    29    30    1
     2    29    28    1
     3    29    36    1
     4    30    31    1
     5    30    41    1
     6    31    32    1
     7    31    34    1
     8    32    33    1
     9    32    35    1
    10    33    44    1
    11    33    36    1
    12    44    45    1
    13    39    40    1
    14    39    41   am
    15    39    42    2
    16    41    43    1
    17    28    25    1
    18    34    37    1
    19    35    38    1
    20    45    46    1
    21    15    16   ar
    22    15    20   ar
    23    15     6    1
    24    16    17   ar
    25    16    21    2
    26    17    18   ar
    27    17    23    1
    28    18    19   ar
    29    18    22    2
    30    19    20   ar
    31     6     7    1
    32     6    11    1
    33     7     8    1
    34     7     9    1
    35     8    13    1
    36     9    10    1
    37     9    12    1
    38    10    11    1
    39    10     5    1
    40    12    14    1
    41     5     4    1
    42     4     1    1
    43     1     2    2
    44     1     3    1
    45     1    24    1
    46    24    25    1
    47    25    26    2
    48    25    27    1
@<TRIPOS>MOLECULE
UD1
 46 48 0 0 0
SMALL
GASTEIGER

@<TRIPOS>ATOM
      1 P          21.8853   70.3894   -0.3358 P.3     1  UNL1        0.2189
      2 O          22.7683   71.3288   -1.0615 O.2     1  UNL1       -0.5170
      3 O          22.7728   69.2184    0.3225 O.3     1  UNL1       -0.4371
      4 O          20.8268   69.7455   -1.3644 O.3     1  UNL1       -0.3112
      5 C          21.0179   70.4008   -2.6192 C.3     1  UNL1        0.1811
      6 C          18.5023   70.9839   -5.1210 C.3     1  UNL1        0.2383
      7 C          18.0788   69.6547   -4.4471 C.3     1  UNL1        0.1895
      8 O          16.6591   69.5016   -4.4662 O.3     1  UNL1       -0.3779
      9 C          18.5953   69.8457   -2.9973 C.3     1  UNL1        0.1713
     10 C          19.6774   70.9352   -3.1258 C.3     1  UNL1        0.1764
     11 O          19.7815   71.2750   -4.5190 O.3     1  UNL1       -0.3308
     12 O          17.5363   70.2816   -2.1422 O.3     1  UNL1       -0.3794
     13 H          16.4624   68.6588   -4.0344 H       1  UNL1        0.2106
     14 H          16.8660   69.5854   -2.1507 H       1  UNL1        0.2105
     15 N          18.6398   70.8120   -6.5677 N.ar    1  UNL1       -0.2551
     16 C          17.5406   70.7607   -7.3401 C.ar    1  UNL1        0.3323
     17 N          17.6373   70.6072   -8.6740 N.ar    1  UNL1       -0.2743
     18 C          18.8467   70.4926   -9.2589 C.ar    1  UNL1        0.2626
     19 C          20.0119   70.5389   -8.4569 C.ar    1  UNL1        0.0795
     20 C          19.8863   70.6990   -7.1221 C.ar    1  UNL1        0.0869
     21 O          16.4428   70.8627   -6.8273 O.2     1  UNL1       -0.2464
     22 O          18.9351   70.3490  -10.4642 O.2     1  UNL1       -0.2670
     23 H          16.8341   70.5771   -9.2163 H       1  UNL1        0.1734
     24 O          21.0955   71.1806    0.8214 O.3     1  UNL1       -0.2703
     25 P          21.3828   72.7473    0.5928 P.3     1  UNL1        0.2208
     26 O          22.8404   72.9945    0.6478 O.2     1  UNL1       -0.5170
     27 O          20.6505   73.6015    1.7444 O.3     1  UNL1       -0.4371
     28 O          20.8169   73.1935   -0.8464 O.3     1  UNL1       -0.2865
     29 C          21.1656   74.5680   -1.0208 C.3     1  UNL1        0.2611
     30 C          20.0305   75.2883   -1.7507 C.3     1  UNL1        0.1582
     31 C          19.7982   74.6126   -3.1068 C.3     1  UNL1        0.1625
     32 C          21.1300   74.5605   -3.8629 C.3     1  UNL1        0.1686
     33 C          22.1816   73.8922   -2.9747 C.3     1  UNL1        0.1760
     34 O          18.8454   75.3653   -3.8599 O.3     1  UNL1       -0.3801
     35 O          20.9679   73.8052   -5.0650 O.3     1  UNL1       -0.3794
     36 O          22.3659   74.6590   -1.7854 O.3     1  UNL1       -0.3263
     37 H          18.7296   74.9056   -4.7028 H       1  UNL1        0.2105
     38 H          21.8280   73.7970   -5.5084 H       1  UNL1        0.2105
     39 C          17.8951   74.2541   -1.1989 C.2     1  UNL1        0.2231
     40 C          16.6358   74.1775   -0.3739 C.3     1  UNL1        0.0946
     41 N          18.8073   75.2132   -0.9492 N.am    1  UNL1       -0.2994
     42 O          18.0870   73.4525   -2.0881 O.2     1  UNL1       -0.2751
     43 H          18.6538   75.8549   -0.2378 H       1  UNL1        0.1496
     44 C          23.5076   73.8058   -3.7331 C.3     1  UNL1        0.1693
     45 O          23.5951   72.5441   -4.3983 O.3     1  UNL1       -0.3794
     46 H          24.4431   72.5306   -4.8625 H       1  UNL1        0.2105
@<TRIPOS>BOND
     1    29    30    1
     2    29    28    1
     3    29    36    1
     4    30    31    1
     5    30    41    1
     6    31    32    1
     7    31    34    1
     8    32    33    1
     9    32    35    1
    10    33    44    1
    11    33    36    1
    12    44    45    1
    13    39    40    1
    14    39    41   am
    15    39    42    2
    16    41    43    1
    17    28    25    1
    18    34    37    1
    19    35    38    1
    20    45    46    1
    21    15    16   ar
    22    15    20   ar
    23    15     6    1
    24    16    17   ar
    25    16    21    2
    26    17    18   ar
    27    17    23    1
    28    18    19   ar
    29    18    22    2
    30    19    20   ar
    31     6     7    1
    32     6    11    1
    33     7     8    1
    34     7     9    1
    35     8    13    1
    36     9    10    1
    37     9    12    1
    38    10    11    1
    39    10     5    1
    40    12    14    1
    41     5     4    1
    42     4     1    1
    43     1     2    2
    44     1     3    1
    45     1    24    1
    46    24    25    1
    47    25    26    2
    48    25    27    1
@<TRIPOS>MOLECULE
UD1
 46 48 0 0 0
SMALL
GASTEIGER

@<TRIPOS>ATOM
      1 P          22.3124   70.9552   -2.2287 P.3     1  UNL1        0.2189
      2 O          22.3968   70.0159   -1.0887 O.2     1  UNL1       -0.5170
      3 O          23.5186   70.6637   -3.2547 O.3     1  UNL1       -0.4371
      4 O          22.4239   72.4674   -1.6867 O.3     1  UNL1       -0.3112
      5 C          22.5236   72.3908   -0.2638 C.3     1  UNL1        0.1811
      6 C          20.5038   73.7043    2.4049 C.3     1  UNL1        0.2383
      7 C          20.9335   74.9519    1.5931 C.3     1  UNL1        0.1895
      8 O          19.9372   75.9728    1.6592 O.3     1  UNL1       -0.3779
      9 C          21.0469   74.3817    0.1553 C.3     1  UNL1        0.1713
     10 C          21.2130   72.8643    0.3664 C.3     1  UNL1        0.1764
     11 O          21.2390   72.6282    1.7845 O.3     1  UNL1       -0.3308
     12 O          19.8599   74.6628   -0.5895 O.3     1  UNL1       -0.3794
     13 H          20.2645   76.7180    1.1366 H       1  UNL1        0.2106
     14 H          19.7804   75.6249   -0.6356 H       1  UNL1        0.2105
     15 N          20.8823   73.8443    3.8115 N.ar    1  UNL1       -0.2551
     16 C          22.1705   73.7093    4.1715 C.ar    1  UNL1        0.3323
     17 N          22.5479   73.8368    5.4574 N.ar    1  UNL1       -0.2743
     18 C          21.6315   74.0945    6.4121 C.ar    1  UNL1        0.2626
     19 C          20.2709   74.2331    6.0479 C.ar    1  UNL1        0.0795
     20 C          19.9207   74.1057    4.7501 C.ar    1  UNL1        0.0869
     21 O          23.0088   73.4768    3.3219 O.2     1  UNL1       -0.2464
     22 O          21.9709   74.2053    7.5757 O.2     1  UNL1       -0.2670
     23 H          23.4822   73.7410    5.6984 H       1  UNL1        0.1734
     24 O          20.9051   70.7582   -2.9834 O.3     1  UNL1       -0.2703
     25 P          20.7716   71.9641   -4.0403 P.3     1  UNL1        0.2208
     26 O          22.1206   72.4035   -4.4602 O.2     1  UNL1       -0.5170
     27 O          19.9960   73.1968   -3.3540 O.3     1  UNL1       -0.4371
     28 O          19.9460   71.4623   -5.3276 O.3     1  UNL1       -0.2865
     29 C          19.1917   72.5807   -5.7980 C.3     1  UNL1        0.2611
     30 C          17.7113   72.2008   -5.8614 C.3     1  UNL1        0.1582
     31 C          17.5416   71.0005   -6.7995 C.3     1  UNL1        0.1625
     32 C          18.1866   71.3374   -8.1481 C.3     1  UNL1        0.1686
     33 C          19.6323   71.7796   -7.9124 C.3     1  UNL1        0.1760
     34 O          16.1508   70.7301   -6.9844 O.3     1  UNL1       -0.3801
     35 O          18.1697   70.1816   -8.9879 O.3     1  UNL1       -0.3794
     36 O          19.6515   72.9501   -7.0963 O.3     1  UNL1       -0.3263
     37 H          16.0907   69.9699   -7.5791 H       1  UNL1        0.2105
     38 H          18.5848   70.4371   -9.8239 H       1  UNL1        0.2105
     39 C          16.1415   72.4414   -4.0142 C.2     1  UNL1        0.2231
     40 C          15.6556   72.0770   -2.6345 C.3     1  UNL1        0.0946
     41 N          17.2385   71.8468   -4.5214 N.am    1  UNL1       -0.2994
     42 O          15.5452   73.2706   -4.6676 O.2     1  UNL1       -0.2751
     43 H          17.7161   71.1834   -3.9986 H       1  UNL1        0.1496
     44 C          20.2958   72.0873   -9.2564 C.3     1  UNL1        0.1693
     45 O          21.5607   72.7130   -9.0315 O.3     1  UNL1       -0.3794
     46 H          21.9440   72.8898   -9.9012 H       1  UNL1        0.2105
@<TRIPOS>BOND
     1    29    30    1
     2    29    28    1
     3    29    36    1
     4    30    31    1
     5    30    41    1
     6    31    32    1
     7    31    34    1
     8    32    33    1
     9    32    35    1
    10    33    44    1
    11    33    36    1
    12    44    45    1
    13    39    40    1
    14    39    41   am
    15    39    42    2
    16    41    43    1
    17    28    25    1
    18    34    37    1
    19    35    38    1
    20    45    46    1
    21    15    16   ar
    22    15    20   ar
    23    15     6    1
    24    16    17   ar
    25    16    21    2
    26    17    18   ar
    27    17    23    1
    28    18    19   ar
    29    18    22    2
    30    19    20   ar
    31     6     7    1
    32     6    11    1
    33     7     8    1
    34     7     9    1
    35     8    13    1
    36     9    10    1
    37     9    12    1
    38    10    11    1
    39    10     5    1
    40    12    14    1
    41     5     4    1
    42     4     1    1
    43     1     2    2
    44     1     3    1
    45     1    24    1
    46    24    25    1
    47    25    26    2
    48    25    27    1
@<TRIPOS>MOLECULE
UD1
 46 48 0 0 0
SMALL
GASTEIGER

@<TRIPOS>ATOM
      1 P          19.8552   72.1887   -3.2043 P.3     1  UNL1        0.2189
      2 O          18.8309   72.9106   -3.9908 O.2     1  UNL1       -0.5170
      3 O          19.1793   70.9202   -2.4788 O.3     1  UNL1       -0.4371
      4 O          20.4715   73.1764   -2.0919 O.3     1  UNL1       -0.3112
      5 C          20.4168   72.4813   -0.8453 C.3     1  UNL1        0.1811
      6 C          22.8613   72.4182    1.7905 C.3     1  UNL1        0.2383
      7 C          22.4261   70.9401    1.6293 C.3     1  UNL1        0.1895
      8 O          23.4975   70.0534    1.9536 O.3     1  UNL1       -0.3779
      9 C          22.0832   70.8645    0.1187 C.3     1  UNL1        0.1713
     10 C          21.8307   72.3309   -0.2817 C.3     1  UNL1        0.1764
     11 O          21.9716   73.1306    0.9049 O.3     1  UNL1       -0.3308
     12 O          23.1810   70.3202   -0.6169 O.3     1  UNL1       -0.3794
     13 H          23.1628   69.1539    1.8339 H       1  UNL1        0.2106
     14 H          23.3271   69.4262   -0.2800 H       1  UNL1        0.2105
     15 N          22.6810   72.8649    3.1723 N.ar    1  UNL1       -0.2551
     16 C          21.4935   72.6931    3.7786 C.ar    1  UNL1        0.3323
     17 N          21.3004   73.0907    5.0501 N.ar    1  UNL1       -0.2743
     18 C          22.2998   73.6802    5.7369 C.ar    1  UNL1        0.2626
     19 C          23.5533   73.8727    5.1088 C.ar    1  UNL1        0.0795
     20 C          23.7213   73.4595    3.8343 C.ar    1  UNL1        0.0869
     21 O          20.5825   72.1629    3.1723 O.2     1  UNL1       -0.2464
     22 O          22.1249   74.0445    6.8850 O.2     1  UNL1       -0.2670
     23 H          20.4387   72.9546    5.4734 H       1  UNL1        0.1734
     24 O          21.0282   71.6858   -4.1841 O.3     1  UNL1       -0.2703
     25 P          21.2359   72.8365   -5.2896 P.3     1  UNL1        0.2208
     26 O          22.5262   72.6274   -5.9825 O.2     1  UNL1       -0.5170
     27 O          21.2408   74.2773   -4.5711 O.3     1  UNL1       -0.4371
     28 O          20.0359   72.7765   -6.3605 O.3     1  UNL1       -0.2865
     29 C          20.0587   71.4690   -6.9358 C.3     1  UNL1        0.2611
     30 C          20.1062   71.5887   -8.4601 C.3     1  UNL1        0.1582
     31 C          18.8777   72.3697   -8.9401 C.3     1  UNL1        0.1625
     32 C          17.6200   71.6990   -8.3776 C.3     1  UNL1        0.1686
     33 C          17.7588   71.5737   -6.8589 C.3     1  UNL1        0.1760
     34 O          18.8318   72.3597  -10.3681 O.3     1  UNL1       -0.3801
     35 O          16.4742   72.4933   -8.6903 O.3     1  UNL1       -0.3794
     36 O          18.8865   70.7581   -6.5435 O.3     1  UNL1       -0.3263
     37 H          18.0460   72.8610  -10.6259 H       1  UNL1        0.2105
     38 H          15.7068   72.0362   -8.3180 H       1  UNL1        0.2105
     39 C          21.3063   73.6352   -9.0133 C.2     1  UNL1        0.2231
     40 C          22.5603   74.3641   -9.4236 C.3     1  UNL1        0.0946
     41 N          21.3243   72.2973   -8.8581 N.am    1  UNL1       -0.2994
     42 O          20.2805   74.2531   -8.8235 O.2     1  UNL1       -0.2751
     43 H          22.1451   71.8026   -9.0102 H       1  UNL1        0.1496
     44 C          16.4935   70.9343   -6.2834 C.3     1  UNL1        0.1693
     45 O          16.8279   69.6926   -5.6601 O.3     1  UNL1       -0.3794
     46 H          16.0049   69.3237   -5.3120 H       1  UNL1        0.2105
@<TRIPOS>BOND
     1    29    30    1
     2    29    28    1
     3    29    36    1
     4    30    31    1
     5    30    41    1
     6    31    32    1
     7    31    34    1
     8    32    33    1
     9    32    35    1
    10    33    44    1
    11    33    36    1
    12    44    45    1
    13    39    40    1
    14    39    41   am
    15    39    42    2
    16    41    43    1
    17    28    25    1
    18    34    37    1
    19    35    38    1
    20    45    46    1
    21    15    16   ar
    22    15    20   ar
    23    15     6    1
    24    16    17   ar
    25    16    21    2
    26    17    18   ar
    27    17    23    1
    28    18    19   ar
    29    18    22    2
    30    19    20   ar
    31     6     7    1
    32     6    11    1
    33     7     8    1
    34     7     9    1
    35     8    13    1
    36     9    10    1
    37     9    12    1
    38    10    11    1
    39    10     5    1
    40    12    14    1
    41     5     4    1
    42     4     1    1
    43     1     2    2
    44     1     3    1
    45     1    24    1
    46    24    25    1
    47    25    26    2
    48    25    27    1
@<TRIPOS>MOLECULE
UD1
 46 48 0 0 0
SMALL
GASTEIGER

@<TRIPOS>ATOM
      1 P          18.9455   69.3282   -3.3718 P.3     1  UNL1        0.2189
      2 O          19.9724   69.8604   -4.2942 O.2     1  UNL1       -0.5170
      3 O          18.8118   67.7369   -3.5779 O.3     1  UNL1       -0.4371
      4 O          17.5298   70.0294   -3.6833 O.3     1  UNL1       -0.3112
      5 C          17.5089   71.2598   -2.9581 C.3     1  UNL1        0.1811
      6 C          17.6232   72.7612   -6.2231 C.3     1  UNL1        0.2383
      7 C          16.1269   72.4258   -6.0023 C.3     1  UNL1        0.1895
      8 O          15.2879   73.3593   -6.6835 O.3     1  UNL1       -0.3779
      9 C          15.9838   72.5726   -4.4650 C.3     1  UNL1        0.1713
     10 C          17.4253   72.4300   -3.9395 C.3     1  UNL1        0.1764
     11 O          18.2730   72.1787   -5.0733 O.3     1  UNL1       -0.3308
     12 O          15.4478   73.8551   -4.1326 O.3     1  UNL1       -0.3794
     13 H          14.3743   73.0955   -6.5069 H       1  UNL1        0.2106
     14 H          14.5722   73.9057   -4.5386 H       1  UNL1        0.2105
     15 N          18.1155   72.1506   -7.4586 N.ar    1  UNL1       -0.2551
     16 C          17.6431   70.9524   -7.8438 C.ar    1  UNL1        0.3323
     17 N          18.0749   70.3690   -8.9775 N.ar    1  UNL1       -0.2743
     18 C          19.0016   70.9778   -9.7447 C.ar    1  UNL1        0.2626
     19 C          19.5119   72.2368   -9.3478 C.ar    1  UNL1        0.0795
     20 C          19.0573   72.8018   -8.2088 C.ar    1  UNL1        0.0869
     21 O          16.8069   70.3908   -7.1626 O.2     1  UNL1       -0.2464
     22 O          19.3963   70.4491  -10.7674 O.2     1  UNL1       -0.2670
     23 H          17.7198   69.5066   -9.2427 H       1  UNL1        0.1734
     24 O          19.3754   69.6393   -1.8528 O.3     1  UNL1       -0.2703
     25 P          20.9136   70.1100   -1.8922 P.3     1  UNL1        0.2208
     26 O          21.6023   69.4508   -3.0235 O.2     1  UNL1       -0.5170
     27 O          21.6363   69.7007   -0.5130 O.3     1  UNL1       -0.4371
     28 O          20.9828   71.7072   -2.0792 O.3     1  UNL1       -0.2865
     29 C          22.3070   72.1091   -1.7244 C.3     1  UNL1        0.2611
     30 C          22.2346   73.1873   -0.6418 C.3     1  UNL1        0.1582
     31 C          21.4318   74.3795   -1.1746 C.3     1  UNL1        0.1625
     32 C          22.0472   74.8302   -2.5035 C.3     1  UNL1        0.1686
     33 C          22.1310   73.6284   -3.4469 C.3     1  UNL1        0.1760
     34 O          21.4832   75.4514   -0.2313 O.3     1  UNL1       -0.3801
     35 O          21.2285   75.8438   -3.0900 O.3     1  UNL1       -0.3794
     36 O          22.9703   72.6252   -2.8764 O.3     1  UNL1       -0.3263
     37 H          20.9665   76.1781   -0.6057 H       1  UNL1        0.2105
     38 H          21.6511   76.0975   -3.9228 H       1  UNL1        0.2105
     39 C          22.0523   72.9311    1.7739 C.2     1  UNL1        0.2231
     40 C          21.3735   72.3711    2.9978 C.3     1  UNL1        0.0946
     41 N          21.5752   72.6440    0.5475 N.am    1  UNL1       -0.2994
     42 O          23.0289   73.6399    1.8932 O.2     1  UNL1       -0.2751
     43 H          20.7938   72.0766    0.4518 H       1  UNL1        0.1496
     44 C          22.7145   74.0749   -4.7891 C.3     1  UNL1        0.1693
     45 O          22.8898   72.9366   -5.6350 O.3     1  UNL1       -0.3794
     46 H          23.2587   73.2610   -6.4677 H       1  UNL1        0.2105
@<TRIPOS>BOND
     1    29    30    1
     2    29    28    1
     3    29    36    1
     4    30    31    1
     5    30    41    1
     6    31    32    1
     7    31    34    1
     8    32    33    1
     9    32    35    1
    10    33    44    1
    11    33    36    1
    12    44    45    1
    13    39    40    1
    14    39    41   am
    15    39    42    2
    16    41    43    1
    17    28    25    1
    18    34    37    1
    19    35    38    1
    20    45    46    1
    21    15    16   ar
    22    15    20   ar
    23    15     6    1
    24    16    17   ar
    25    16    21    2
    26    17    18   ar
    27    17    23    1
    28    18    19   ar
    29    18    22    2
    30    19    20   ar
    31     6     7    1
    32     6    11    1
    33     7     8    1
    34     7     9    1
    35     8    13    1
    36     9    10    1
    37     9    12    1
    38    10    11    1
    39    10     5    1
    40    12    14    1
    41     5     4    1
    42     4     1    1
    43     1     2    2
    44     1     3    1
    45     1    24    1
    46    24    25    1
    47    25    26    2
    48    25    27    1
@<TRIPOS>MOLECULE
UD1
 46 48 0 0 0
SMALL
GASTEIGER

@<TRIPOS>ATOM
      1 P          20.3344   70.0545   -2.1724 P.3     1  UNL1        0.2189
      2 O          21.5564   69.5275   -2.8187 O.2     1  UNL1       -0.5170
      3 O          19.1217   69.0182   -2.3915 O.3     1  UNL1       -0.4371
      4 O          19.9509   71.4743   -2.8281 O.3     1  UNL1       -0.3112
      5 C          19.7175   71.2389   -4.2175 C.3     1  UNL1        0.1811
      6 C          16.8155   71.9153   -6.2295 C.3     1  UNL1        0.2383
      7 C          17.1527   70.4315   -6.5210 C.3     1  UNL1        0.1895
      8 O          15.9708   69.6881   -6.8206 O.3     1  UNL1       -0.3779
      9 C          17.7719   69.9682   -5.1767 C.3     1  UNL1        0.1713
     10 C          18.2143   71.2785   -4.4970 C.3     1  UNL1        0.1764
     11 O          17.9133   72.3547   -5.4017 O.3     1  UNL1       -0.3308
     12 O          16.7954   69.2903   -4.3833 O.3     1  UNL1       -0.3794
     13 H          16.2484   68.7776   -6.9920 H       1  UNL1        0.2106
     14 H          16.5156   68.5146   -4.8873 H       1  UNL1        0.2105
     15 N          16.7627   72.6894   -7.4703 N.ar    1  UNL1       -0.2551
     16 C          17.8398   72.7350   -8.2735 C.ar    1  UNL1        0.3323
     17 N          17.8183   73.4358   -9.4227 N.ar    1  UNL1       -0.2743
     18 C          16.7110   74.1151   -9.7837 C.ar    1  UNL1        0.2626
     19 C          15.5719   74.0805   -8.9445 C.ar    1  UNL1        0.0795
     20 C          15.6190   73.3653   -7.8001 C.ar    1  UNL1        0.0869
     21 O          18.8459   72.1275   -7.9616 O.2     1  UNL1       -0.2464
     22 O          16.6920   74.7529  -10.8201 O.2     1  UNL1       -0.2670
     23 H          18.6027   73.4538   -9.9923 H       1  UNL1        0.1734
     24 O          20.6003   70.2455   -0.5970 O.3     1  UNL1       -0.2703
     25 P          22.1831   70.4729   -0.4169 P.3     1  UNL1        0.2208
     26 O          22.7979   70.7293   -1.7379 O.2     1  UNL1       -0.5170
     27 O          22.8440   69.1578    0.2357 O.3     1  UNL1       -0.4371
     28 O          22.4388   71.7354    0.5480 O.3     1  UNL1       -0.2865
     29 C          21.1576   72.1787    0.9989 C.3     1  UNL1        0.2611
     30 C          20.9385   73.6257    0.5537 C.3     1  UNL1        0.1582
     31 C          22.0511   74.5037    1.1374 C.3     1  UNL1        0.1625
     32 C          22.1007   74.2884    2.6538 C.3     1  UNL1        0.1686
     33 C          22.2353   72.7914    2.9405 C.3     1  UNL1        0.1760
     34 O          21.7759   75.8768    0.8541 O.3     1  UNL1       -0.3801
     35 O          23.2237   74.9837    3.1987 O.3     1  UNL1       -0.3794
     36 O          21.1016   72.0973    2.4214 O.3     1  UNL1       -0.3263
     37 H          22.4990   76.3917    1.2380 H       1  UNL1        0.2105
     38 H          23.2174   74.8211    4.1527 H       1  UNL1        0.2105
     39 C          22.1091   74.0476   -1.5405 C.2     1  UNL1        0.2231
     40 C          22.1430   74.1232   -3.0457 C.3     1  UNL1        0.0946
     41 N          20.9720   73.6988   -0.9085 N.am    1  UNL1       -0.2994
     42 O          23.1057   74.3013   -0.8982 O.2     1  UNL1       -0.2751
     43 H          20.1742   73.4959   -1.4223 H       1  UNL1        0.1496
     44 C          22.3184   72.5683    4.4519 C.3     1  UNL1        0.1693
     45 O          21.0642   72.8981    5.0522 O.3     1  UNL1       -0.3794
     46 H          21.1594   72.7443    6.0018 H       1  UNL1        0.2105
@<TRIPOS>BOND
     1    29    30    1
     2    29    28    1
     3    29    36    1
     4    30    31    1
     5    30    41    1
     6    31    32    1
     7    31    34    1
     8    32    33    1
     9    32    35    1
    10    33    44    1
    11    33    36    1
    12    44    45    1
    13    39    40    1
    14    39    41   am
    15    39    42    2
    16    41    43    1
    17    28    25    1
    18    34    37    1
    19    35    38    1
    20    45    46    1
    21    15    16   ar
    22    15    20   ar
    23    15     6    1
    24    16    17   ar
    25    16    21    2
    26    17    18   ar
    27    17    23    1
    28    18    19   ar
    29    18    22    2
    30    19    20   ar
    31     6     7    1
    32     6    11    1
    33     7     8    1
    34     7     9    1
    35     8    13    1
    36     9    10    1
    37     9    12    1
    38    10    11    1
    39    10     5    1
    40    12    14    1
    41     5     4    1
    42     4     1    1
    43     1     2    2
    44     1     3    1
    45     1    24    1
    46    24    25    1
    47    25    26    2
    48    25    27    1
@<TRIPOS>MOLECULE
UD1
 46 48 0 0 0
SMALL
GASTEIGER

@<TRIPOS>ATOM
      1 P          19.7711   70.9622   -4.2262 P.3     1  UNL1        0.2189
      2 O          19.7191   69.9464   -5.3005 O.2     1  UNL1       -0.5170
      3 O          20.0141   72.4163   -4.8737 O.3     1  UNL1       -0.4371
      4 O          20.9787   70.6159   -3.2189 O.3     1  UNL1       -0.3112
      5 C          20.5038   70.8787   -1.8976 C.3     1  UNL1        0.1811
      6 C          21.6039   73.4390    0.3744 C.3     1  UNL1        0.2383
      7 C          22.8931   72.9897   -0.3578 C.3     1  UNL1        0.1895
      8 O          23.8199   74.0703   -0.4706 O.3     1  UNL1       -0.3779
      9 C          22.3500   72.5788   -1.7511 C.3     1  UNL1        0.1713
     10 C          20.8516   72.3157   -1.5061 C.3     1  UNL1        0.1764
     11 O          20.6043   72.5138   -0.1036 O.3     1  UNL1       -0.3308
     12 O          22.5311   73.6397   -2.6915 O.3     1  UNL1       -0.3794
     13 H          24.5966   73.7261   -0.9328 H       1  UNL1        0.2106
     14 H          23.4826   73.7964   -2.7559 H       1  UNL1        0.2105
     15 N          21.7629   73.3233    1.8245 N.ar    1  UNL1       -0.2551
     16 C          21.7711   72.1079    2.3990 C.ar    1  UNL1        0.3323
     17 N          21.9196   71.9713    3.7300 N.ar    1  UNL1       -0.2743
     18 C          22.0542   73.0601    4.5139 C.ar    1  UNL1        0.2626
     19 C          22.0413   74.3459    3.9229 C.ar    1  UNL1        0.0795
     20 C          21.8962   74.4538    2.5847 C.ar    1  UNL1        0.0869
     21 O          21.6508   71.1165    1.7053 O.2     1  UNL1       -0.2464
     22 O          22.1837   72.9380    5.7179 O.2     1  UNL1       -0.2670
     23 H          21.9280   71.0867    4.1269 H       1  UNL1        0.1734
     24 O          18.3803   70.9596   -3.4172 O.3     1  UNL1       -0.2703
     25 P          17.2040   70.9827   -4.5150 P.3     1  UNL1        0.2208
     26 O          15.9424   71.4185   -3.8768 O.2     1  UNL1       -0.5170
     27 O          17.0122   69.5064   -5.1282 O.3     1  UNL1       -0.4371
     28 O          17.5898   72.0065   -5.6954 O.3     1  UNL1       -0.2865
     29 C          16.3942   72.2529   -6.4377 C.3     1  UNL1        0.2611
     30 C          16.7490   72.4674   -7.9101 C.3     1  UNL1        0.1582
     31 C          17.7120   73.6544   -8.0258 C.3     1  UNL1        0.1625
     32 C          17.0860   74.8637   -7.3230 C.3     1  UNL1        0.1686
     33 C          16.7085   74.4691   -5.8937 C.3     1  UNL1        0.1760
     34 O          17.9332   73.9589   -9.4041 O.3     1  UNL1       -0.3801
     35 O          18.0275   75.9380   -7.2909 O.3     1  UNL1       -0.3794
     36 O          15.7474   73.4146   -5.9225 O.3     1  UNL1       -0.3263
     37 H          18.5431   74.7091   -9.4301 H       1  UNL1        0.2105
     38 H          17.5938   76.6766   -6.8405 H       1  UNL1        0.2105
     39 C          18.7335   71.1776   -8.4869 C.2     1  UNL1        0.2231
     40 C          19.3928   69.9370   -9.0332 C.3     1  UNL1        0.0946
     41 N          17.3900   71.2622   -8.4402 N.am    1  UNL1       -0.2994
     42 O          19.4125   72.1004   -8.0899 O.2     1  UNL1       -0.2751
     43 H          16.8463   70.5240   -8.7581 H       1  UNL1        0.1496
     44 C          16.1119   75.6795   -5.1725 C.3     1  UNL1        0.1693
     45 O          17.1550   76.4097   -4.5237 O.3     1  UNL1       -0.3794
     46 H          16.7374   77.1618   -4.0824 H       1  UNL1        0.2105
@<TRIPOS>BOND
     1    29    30    1
     2    29    28    1
     3    29    36    1
     4    30    31    1
     5    30    41    1
     6    31    32    1
     7    31    34    1
     8    32    33    1
     9    32    35    1
    10    33    44    1
    11    33    36    1
    12    44    45    1
    13    39    40    1
    14    39    41   am
    15    39    42    2
    16    41    43    1
    17    28    25    1
    18    34    37    1
    19    35    38    1
    20    45    46    1
    21    15    16   ar
    22    15    20   ar
    23    15     6    1
    24    16    17   ar
    25    16    21    2
    26    17    18   ar
    27    17    23    1
    28    18    19   ar
    29    18    22    2
    30    19    20   ar
    31     6     7    1
    32     6    11    1
    33     7     8    1
    34     7     9    1
    35     8    13    1
    36     9    10    1
    37     9    12    1
    38    10    11    1
    39    10     5    1
    40    12    14    1
    41     5     4    1
    42     4     1    1
    43     1     2    2
    44     1     3    1
    45     1    24    1
    46    24    25    1
    47    25    26    2
    48    25    27    1
@<TRIPOS>MOLECULE
UD1
 46 48 0 0 0
SMALL
GASTEIGER

@<TRIPOS>ATOM
      1 P          19.8236   70.4073   -4.0740 P.3     1  UNL1        0.2189
      2 O          20.3144   69.0471   -3.7614 O.2     1  UNL1       -0.5170
      3 O          18.5835   70.7649   -3.1112 O.3     1  UNL1       -0.4371
      4 O          19.3430   70.4640   -5.6098 O.3     1  UNL1       -0.3112
      5 C          17.9683   70.8518   -5.5992 C.3     1  UNL1        0.1811
      6 C          19.0747   73.3974   -7.8847 C.3     1  UNL1        0.2383
      7 C          18.6915   72.2013   -8.7917 C.3     1  UNL1        0.1895
      8 O          18.2193   72.6533  -10.0613 O.3     1  UNL1       -0.3779
      9 C          17.5500   71.5319   -7.9830 C.3     1  UNL1        0.1713
     10 C          17.7647   72.0377   -6.5434 C.3     1  UNL1        0.1764
     11 O          18.9404   72.8652   -6.5496 O.3     1  UNL1       -0.3308
     12 O          16.2755   71.9452   -8.4805 O.3     1  UNL1       -0.3794
     13 H          17.9993   71.8642  -10.5755 H       1  UNL1        0.2106
     14 H          16.2263   71.6521   -9.4002 H       1  UNL1        0.2105
     15 N          20.4532   73.8191   -8.1360 N.ar    1  UNL1       -0.2551
     16 C          21.4467   72.9150   -8.0834 C.ar    1  UNL1        0.3323
     17 N          22.7235   73.2739   -8.3141 N.ar    1  UNL1       -0.2743
     18 C          23.0286   74.5570   -8.5944 C.ar    1  UNL1        0.2626
     19 C          21.9931   75.5202   -8.6471 C.ar    1  UNL1        0.0795
     20 C          20.7205   75.1319   -8.4169 C.ar    1  UNL1        0.0869
     21 O          21.1875   71.7539   -7.8318 O.2     1  UNL1       -0.2464
     22 O          24.1832   74.8835   -8.7985 O.2     1  UNL1       -0.2670
     23 H          23.4270   72.6076   -8.2767 H       1  UNL1        0.1734
     24 O          21.0080   71.4715   -3.8429 O.3     1  UNL1       -0.2703
     25 P          21.9301   70.8910   -2.6588 P.3     1  UNL1        0.2208
     26 O          23.2785   70.5883   -3.1872 O.2     1  UNL1       -0.5170
     27 O          21.2690   69.5445   -2.0739 O.3     1  UNL1       -0.4371
     28 O          22.0474   71.9840   -1.4832 O.3     1  UNL1       -0.2865
     29 C          20.8113   71.9571   -0.7674 C.3     1  UNL1        0.2611
     30 C          20.2450   73.3756   -0.6840 C.3     1  UNL1        0.1582
     31 C          21.2604   74.2800    0.0234 C.3     1  UNL1        0.1625
     32 C          21.6288   73.6450    1.3685 C.3     1  UNL1        0.1686
     33 C          22.0937   72.2068    1.1299 C.3     1  UNL1        0.1760
     34 O          20.6838   75.5691    0.2407 O.3     1  UNL1       -0.3801
     35 O          22.6815   74.3941    1.9784 O.3     1  UNL1       -0.3794
     36 O          21.0352   71.4485    0.5459 O.3     1  UNL1       -0.3263
     37 H          21.3551   76.1039    0.6864 H       1  UNL1        0.2105
     38 H          22.8822   73.9605    2.8199 H       1  UNL1        0.2105
     39 C          20.9224   74.6342   -2.6567 C.2     1  UNL1        0.2231
     40 C          20.6629   75.1566   -4.0467 C.3     1  UNL1        0.0946
     41 N          19.9936   73.8829   -2.0345 N.am    1  UNL1       -0.2994
     42 O          21.9674   74.8909   -2.0978 O.2     1  UNL1       -0.2751
     43 H          19.1571   73.6776   -2.4815 H       1  UNL1        0.1496
     44 C          22.4950   71.5739    2.4639 C.3     1  UNL1        0.1693
     45 O          21.4845   71.8371    3.4395 O.3     1  UNL1       -0.3794
     46 H          21.7758   71.4226    4.2629 H       1  UNL1        0.2105
@<TRIPOS>BOND
     1    29    30    1
     2    29    28    1
     3    29    36    1
     4    30    31    1
     5    30    41    1
     6    31    32    1
     7    31    34    1
     8    32    33    1
     9    32    35    1
    10    33    44    1
    11    33    36    1
    12    44    45    1
    13    39    40    1
    14    39    41   am
    15    39    42    2
    16    41    43    1
    17    28    25    1
    18    34    37    1
    19    35    38    1
    20    45    46    1
    21    15    16   ar
    22    15    20   ar
    23    15     6    1
    24    16    17   ar
    25    16    21    2
    26    17    18   ar
    27    17    23    1
    28    18    19   ar
    29    18    22    2
    30    19    20   ar
    31     6     7    1
    32     6    11    1
    33     7     8    1
    34     7     9    1
    35     8    13    1
    36     9    10    1
    37     9    12    1
    38    10    11    1
    39    10     5    1
    40    12    14    1
    41     5     4    1
    42     4     1    1
    43     1     2    2
    44     1     3    1
    45     1    24    1
    46    24    25    1
    47    25    26    2
    48    25    27    1
@<TRIPOS>MOLECULE
UD1
 46 48 0 0 0
SMALL
GASTEIGER

@<TRIPOS>ATOM
      1 P          18.7408   74.5799   -2.9566 P.3     1  UNL1        0.2189
      2 O          17.5853   75.3480   -2.4432 O.2     1  UNL1       -0.5170
      3 O          18.6453   74.4744   -4.5604 O.3     1  UNL1       -0.4371
      4 O          18.7264   73.1006   -2.3207 O.3     1  UNL1       -0.3112
      5 C          17.3744   72.6424   -2.3692 C.3     1  UNL1        0.1811
      6 C          17.9114   70.3367   -5.0753 C.3     1  UNL1        0.2383
      7 C          19.1891   70.2203   -4.2068 C.3     1  UNL1        0.1895
      8 O          19.7395   68.9048   -4.2810 O.3     1  UNL1       -0.3779
      9 C          18.6439   70.5127   -2.7847 C.3     1  UNL1        0.1713
     10 C          17.3245   71.2675   -3.0374 C.3     1  UNL1        0.1764
     11 O          17.1825   71.4201   -4.4600 O.3     1  UNL1       -0.3308
     12 O          18.4027   69.2924   -2.0807 O.3     1  UNL1       -0.3794
     13 H          20.5286   68.8993   -3.7217 H       1  UNL1        0.2106
     14 H          19.2535   68.8397   -2.0070 H       1  UNL1        0.2105
     15 N          18.2527   70.6650   -6.4599 N.ar    1  UNL1       -0.2551
     16 C          17.3358   70.5001   -7.4292 C.ar    1  UNL1        0.3323
     17 N          17.6208   70.7976   -8.7108 N.ar    1  UNL1       -0.2743
     18 C          18.8422   71.2602   -9.0455 C.ar    1  UNL1        0.2626
     19 C          19.8189   71.4329   -8.0359 C.ar    1  UNL1        0.0795
     20 C          19.5046   71.1317   -6.7577 C.ar    1  UNL1        0.0869
     21 O          16.2297   70.0838   -7.1430 O.2     1  UNL1       -0.2464
     22 O          19.1025   71.5250  -10.2046 O.2     1  UNL1       -0.2670
     23 H          16.9458   70.6770   -9.3963 H       1  UNL1        0.1734
     24 O          20.1061   75.3264   -2.5472 O.3     1  UNL1       -0.2703
     25 P          20.3048   75.0983   -0.9668 P.3     1  UNL1        0.2208
     26 O          19.0603   75.4642   -0.2554 O.2     1  UNL1       -0.5170
     27 O          21.5147   76.0201   -0.4388 O.3     1  UNL1       -0.4371
     28 O          20.6486   73.5513   -0.6856 O.3     1  UNL1       -0.2865
     29 C          22.0660   73.4140   -0.8012 C.3     1  UNL1        0.2611
     30 C          22.3863   72.3525   -1.8549 C.3     1  UNL1        0.1582
     31 C          21.7461   71.0235   -1.4383 C.3     1  UNL1        0.1625
     32 C          22.1998   70.6861   -0.0141 C.3     1  UNL1        0.1686
     33 C          21.8906   71.8725    0.9016 C.3     1  UNL1        0.1760
     34 O          22.1612   69.9905   -2.3339 O.3     1  UNL1       -0.3801
     35 O          21.5011   69.5288    0.4485 O.3     1  UNL1       -0.3794
     36 O          22.6085   73.0234    0.4584 O.3     1  UNL1       -0.3263
     37 H          21.7360   69.1747   -2.0357 H       1  UNL1        0.2105
     38 H          21.8155   69.3526    1.3467 H       1  UNL1        0.2105
     39 C          22.6688   72.8996   -4.2119 C.2     1  UNL1        0.2231
     40 C          22.1149   73.3309   -5.5458 C.3     1  UNL1        0.0946
     41 N          21.8487   72.7710   -3.1511 N.am    1  UNL1       -0.2994
     42 O          23.8532   72.6689   -4.0931 O.2     1  UNL1       -0.2751
     43 H          20.9008   72.9557   -3.2458 H       1  UNL1        0.1496
     44 C          22.3103   71.5330    2.3333 C.3     1  UNL1        0.1693
     45 O          21.2544   71.8749    3.2334 O.3     1  UNL1       -0.3794
     46 H          21.5590   71.6460    4.1219 H       1  UNL1        0.2105
@<TRIPOS>BOND
     1    29    30    1
     2    29    28    1
     3    29    36    1
     4    30    31    1
     5    30    41    1
     6    31    32    1
     7    31    34    1
     8    32    33    1
     9    32    35    1
    10    33    44    1
    11    33    36    1
    12    44    45    1
    13    39    40    1
    14    39    41   am
    15    39    42    2
    16    41    43    1
    17    28    25    1
    18    34    37    1
    19    35    38    1
    20    45    46    1
    21    15    16   ar
    22    15    20   ar
    23    15     6    1
    24    16    17   ar
    25    16    21    2
    26    17    18   ar
    27    17    23    1
    28    18    19   ar
    29    18    22    2
    30    19    20   ar
    31     6     7    1
    32     6    11    1
    33     7     8    1
    34     7     9    1
    35     8    13    1
    36     9    10    1
    37     9    12    1
    38    10    11    1
    39    10     5    1
    40    12    14    1
    41     5     4    1
    42     4     1    1
    43     1     2    2
    44     1     3    1
    45     1    24    1
    46    24    25    1
    47    25    26    2
    48    25    27    1
@<TRIPOS>MOLECULE
UD1
 46 48 0 0 0
SMALL
GASTEIGER

@<TRIPOS>ATOM
      1 P          19.0220   70.1657   -3.2539 P.3     1  UNL1        0.2189
      2 O          18.3345   71.4543   -3.0181 O.2     1  UNL1       -0.5170
      3 O          18.4200   69.0472   -2.2644 O.3     1  UNL1       -0.4371
      4 O          20.5977   70.3391   -2.9710 O.3     1  UNL1       -0.3112
      5 C          20.7464   70.5351   -1.5639 C.3     1  UNL1        0.1811
      6 C          21.5832   73.3316    0.5353 C.3     1  UNL1        0.2383
      7 C          22.9310   72.9048   -0.0983 C.3     1  UNL1        0.1895
      8 O          23.7988   74.0276   -0.2585 O.3     1  UNL1       -0.3779
      9 C          22.4824   72.3512   -1.4758 C.3     1  UNL1        0.1713
     10 C          20.9912   72.0175   -1.2776 C.3     1  UNL1        0.1764
     11 O          20.6634   72.3117    0.0911 O.3     1  UNL1       -0.3308
     12 O          22.6491   73.3426   -2.4918 O.3     1  UNL1       -0.3794
     13 H          24.6161   73.6957   -0.6551 H       1  UNL1        0.2106
     14 H          23.5921   73.5515   -2.5261 H       1  UNL1        0.2105
     15 N          21.6761   73.3423    1.9957 N.ar    1  UNL1       -0.2551
     16 C          21.7838   72.1814    2.6650 C.ar    1  UNL1        0.3323
     17 N          21.8749   72.1614    4.0079 N.ar    1  UNL1       -0.2743
     18 C          21.8500   73.3135    4.7079 C.ar    1  UNL1        0.2626
     19 C          21.7311   74.5425    4.0163 C.ar    1  UNL1        0.0795
     20 C          21.6468   74.5340    2.6686 C.ar    1  UNL1        0.0869
     21 O          21.8076   71.1339    2.0478 O.2     1  UNL1       -0.2464
     22 O          21.9275   73.2963    5.9224 O.2     1  UNL1       -0.2670
     23 H          21.9568   71.3151    4.4741 H       1  UNL1        0.1734
     24 O          18.7982   69.7095   -4.7806 O.3     1  UNL1       -0.2703
     25 P          17.3404   70.2352   -5.2139 P.3     1  UNL1        0.2208
     26 O          16.6106   70.7076   -4.0168 O.2     1  UNL1       -0.5170
     27 O          16.5189   69.0342   -5.9030 O.3     1  UNL1       -0.4371
     28 O          17.4951   71.4476   -6.2611 O.3     1  UNL1       -0.2865
     29 C          18.8751   71.8172   -6.2663 C.3     1  UNL1        0.2611
     30 C          18.9991   73.3020   -6.6130 C.3     1  UNL1        0.1582
     31 C          18.3672   73.5502   -7.9873 C.3     1  UNL1        0.1625
     32 C          19.0008   72.5894   -8.9989 C.3     1  UNL1        0.1686
     33 C          18.8740   71.1579   -8.4735 C.3     1  UNL1        0.1760
     34 O          18.6081   74.9003   -8.3883 O.3     1  UNL1       -0.3801
     35 O          18.3248   72.7015  -10.2527 O.3     1  UNL1       -0.3794
     36 O          19.5714   71.0355   -7.2345 O.3     1  UNL1       -0.3263
     37 H          18.1943   75.0123   -9.2552 H       1  UNL1        0.2105
     38 H          18.7540   72.0806  -10.8584 H       1  UNL1        0.2105
     39 C          18.8528   75.2454   -5.1516 C.2     1  UNL1        0.2231
     40 C          18.1368   76.0672   -4.1102 C.3     1  UNL1        0.0946
     41 N          18.3037   74.1008   -5.6018 N.am    1  UNL1       -0.2994
     42 O          19.9238   75.6143   -5.5839 O.2     1  UNL1       -0.2751
     43 H          17.4467   73.8053   -5.2558 H       1  UNL1        0.1496
     44 C          19.4751   70.1870   -9.4920 C.3     1  UNL1        0.1693
     45 O          18.5772   70.0351  -10.5933 O.3     1  UNL1       -0.3794
     46 H          18.9926   69.4171  -11.2098 H       1  UNL1        0.2105
@<TRIPOS>BOND
     1    29    30    1
     2    29    28    1
     3    29    36    1
     4    30    31    1
     5    30    41    1
     6    31    32    1
     7    31    34    1
     8    32    33    1
     9    32    35    1
    10    33    44    1
    11    33    36    1
    12    44    45    1
    13    39    40    1
    14    39    41   am
    15    39    42    2
    16    41    43    1
    17    28    25    1
    18    34    37    1
    19    35    38    1
    20    45    46    1
    21    15    16   ar
    22    15    20   ar
    23    15     6    1
    24    16    17   ar
    25    16    21    2
    26    17    18   ar
    27    17    23    1
    28    18    19   ar
    29    18    22    2
    30    19    20   ar
    31     6     7    1
    32     6    11    1
    33     7     8    1
    34     7     9    1
    35     8    13    1
    36     9    10    1
    37     9    12    1
    38    10    11    1
    39    10     5    1
    40    12    14    1
    41     5     4    1
    42     4     1    1
    43     1     2    2
    44     1     3    1
    45     1    24    1
    46    24    25    1
    47    25    26    2
    48    25    27    1
@<TRIPOS>MOLECULE
UD1
 46 48 0 0 0
SMALL
GASTEIGER

@<TRIPOS>ATOM
      1 P          22.1853   71.5184   -2.9260 P.3     1  UNL1        0.2189
      2 O          22.0836   70.3516   -2.0221 O.2     1  UNL1       -0.5170
      3 O          23.6085   71.4920   -3.6785 O.3     1  UNL1       -0.4371
      4 O          22.0586   72.8745   -2.0670 O.3     1  UNL1       -0.3112
      5 C          21.3206   72.5502   -0.8878 C.3     1  UNL1        0.1811
      6 C          22.6896   73.5097    2.2953 C.3     1  UNL1        0.2383
      7 C          21.6136   72.4495    2.6392 C.3     1  UNL1        0.1895
      8 O          21.9712   71.7207    3.8140 O.3     1  UNL1       -0.3779
      9 C          21.6472   71.5337    1.3881 C.3     1  UNL1        0.1713
     10 C          22.2807   72.4160    0.2951 C.3     1  UNL1        0.1764
     11 O          22.5257   73.7087    0.8750 O.3     1  UNL1       -0.3308
     12 O          22.4510   70.3780    1.6355 O.3     1  UNL1       -0.3794
     13 H          21.2637   71.0807    3.9729 H       1  UNL1        0.2106
     14 H          22.0364   69.9008    2.3665 H       1  UNL1        0.2105
     15 N          22.4429   74.7552    3.0228 N.ar    1  UNL1       -0.2551
     16 C          23.0606   74.9747    4.1965 C.ar    1  UNL1        0.3323
     17 N          22.8556   76.1130    4.8855 N.ar    1  UNL1       -0.2743
     18 C          22.0141   77.0530    4.4097 C.ar    1  UNL1        0.2626
     19 C          21.3526   76.8321    3.1782 C.ar    1  UNL1        0.0795
     20 C          21.5807   75.6839    2.5053 C.ar    1  UNL1        0.0869
     21 O          23.8225   74.1365    4.6387 O.2     1  UNL1       -0.2464
     22 O          21.8243   78.0803    5.0341 O.2     1  UNL1       -0.2670
     23 H          23.3132   76.2568    5.7281 H       1  UNL1        0.1734
     24 O          21.0009   71.4597   -4.0135 O.3     1  UNL1       -0.2703
     25 P          21.2125   72.7136   -4.9994 P.3     1  UNL1        0.2208
     26 O          22.5703   72.6575   -5.5843 O.2     1  UNL1       -0.5170
     27 O          21.0422   74.0835   -4.1707 O.3     1  UNL1       -0.4371
     28 O          20.1179   72.6617   -6.1783 O.3     1  UNL1       -0.2865
     29 C          20.1891   71.3555   -6.7527 C.3     1  UNL1        0.2611
     30 C          20.1937   71.4741   -8.2778 C.3     1  UNL1        0.1582
     31 C          18.9180   72.1945   -8.7284 C.3     1  UNL1        0.1625
     32 C          17.7078   71.4657   -8.1347 C.3     1  UNL1        0.1686
     33 C          17.8894   71.3505   -6.6197 C.3     1  UNL1        0.1760
     34 O          18.8378   72.1793  -10.1548 O.3     1  UNL1       -0.3801
     35 O          16.5181   72.2038   -8.4200 O.3     1  UNL1       -0.3794
     36 O          19.0621   70.5903   -6.3312 O.3     1  UNL1       -0.3263
     37 H          18.0229   72.6420  -10.3938 H       1  UNL1        0.2105
     38 H          15.7827   71.7114   -8.0287 H       1  UNL1        0.2105
     39 C          21.2684   73.5672   -8.9090 C.2     1  UNL1        0.2231
     40 C          22.4758   74.3542   -9.3505 C.3     1  UNL1        0.0946
     41 N          21.3665   72.2392   -8.7062 N.am    1  UNL1       -0.2994
     42 O          20.2080   74.1294   -8.7370 O.2     1  UNL1       -0.2751
     43 H          22.2150   71.7890   -8.8441 H       1  UNL1        0.1496
     44 C          16.6705   70.6526   -6.0128 C.3     1  UNL1        0.1693
     45 O          16.1346   69.7228   -6.9564 O.3     1  UNL1       -0.3794
     46 H          15.3703   69.3063   -6.5357 H       1  UNL1        0.2105
@<TRIPOS>BOND
     1    29    30    1
     2    29    28    1
     3    29    36    1
     4    30    31    1
     5    30    41    1
     6    31    32    1
     7    31    34    1
     8    32    33    1
     9    32    35    1
    10    33    44    1
    11    33    36    1
    12    44    45    1
    13    39    40    1
    14    39    41   am
    15    39    42    2
    16    41    43    1
    17    28    25    1
    18    34    37    1
    19    35    38    1
    20    45    46    1
    21    15    16   ar
    22    15    20   ar
    23    15     6    1
    24    16    17   ar
    25    16    21    2
    26    17    18   ar
    27    17    23    1
    28    18    19   ar
    29    18    22    2
    30    19    20   ar
    31     6     7    1
    32     6    11    1
    33     7     8    1
    34     7     9    1
    35     8    13    1
    36     9    10    1
    37     9    12    1
    38    10    11    1
    39    10     5    1
    40    12    14    1
    41     5     4    1
    42     4     1    1
    43     1     2    2
    44     1     3    1
    45     1    24    1
    46    24    25    1
    47    25    26    2
    48    25    27    1
@<TRIPOS>MOLECULE
UD1
 46 48 0 0 0
SMALL
GASTEIGER

@<TRIPOS>ATOM
      1 P          22.5149   73.1777   -4.3634 P.3     1  UNL1        0.2189
      2 O          21.7168   74.4215   -4.4328 O.2     1  UNL1       -0.5170
      3 O          21.8701   72.1865   -3.2705 O.3     1  UNL1       -0.4371
      4 O          24.0265   73.5337   -3.9379 O.3     1  UNL1       -0.3112
      5 C          24.1102   74.9575   -3.8602 C.3     1  UNL1        0.1811
      6 C          27.6734   75.4314   -3.9352 C.3     1  UNL1        0.2383
      7 C          27.0903   76.8058   -4.3490 C.3     1  UNL1        0.1895
      8 O          27.9480   77.8703   -3.9361 O.3     1  UNL1       -0.3779
      9 C          25.7509   76.8397   -3.5679 C.3     1  UNL1        0.1713
     10 C          25.4590   75.3582   -3.2608 C.3     1  UNL1        0.1764
     11 O          26.5101   74.5803   -3.8586 O.3     1  UNL1       -0.3308
     12 O          25.8953   77.5889   -2.3593 O.3     1  UNL1       -0.3794
     13 H          27.5301   78.6941   -4.2229 H       1  UNL1        0.2106
     14 H          26.1354   78.4892   -2.6159 H       1  UNL1        0.2105
     15 N          28.6083   74.9380   -4.9471 N.ar    1  UNL1       -0.2551
     16 C          29.7102   74.2686   -4.5662 C.ar    1  UNL1        0.3323
     17 N          30.5855   73.7999   -5.4753 N.ar    1  UNL1       -0.2743
     18 C          30.3733   74.0043   -6.7911 C.ar    1  UNL1        0.2626
     19 C          29.2203   74.7125   -7.2056 C.ar    1  UNL1        0.0795
     20 C          28.3562   75.1670   -6.2729 C.ar    1  UNL1        0.0869
     21 O          29.9155   74.0763   -3.3832 O.2     1  UNL1       -0.2464
     22 O          31.1664   73.5851   -7.6137 O.2     1  UNL1       -0.2670
     23 H          31.3726   73.3151   -5.1830 H       1  UNL1        0.1734
     24 O          22.5178   72.4608   -5.8039 O.3     1  UNL1       -0.2703
     25 P          21.1716   72.9218   -6.5552 P.3     1  UNL1        0.2208
     26 O          21.1844   72.4151   -7.9452 O.2     1  UNL1       -0.5170
     27 O          21.0890   74.5296   -6.5717 O.3     1  UNL1       -0.4371
     28 O          19.8924   72.3281   -5.7796 O.3     1  UNL1       -0.2865
     29 C          19.7716   70.9583   -6.1671 C.3     1  UNL1        0.2611
     30 C          18.4190   70.7436   -6.8486 C.3     1  UNL1        0.1582
     31 C          17.3002   71.1312   -5.8752 C.3     1  UNL1        0.1625
     32 C          17.5004   70.3602   -4.5662 C.3     1  UNL1        0.1686
     33 C          18.9216   70.6063   -4.0552 C.3     1  UNL1        0.1760
     34 O          16.0332   70.7952   -6.4437 O.3     1  UNL1       -0.3801
     35 O          16.5563   70.8145   -3.5947 O.3     1  UNL1       -0.3794
     36 O          19.8672   70.1286   -5.0113 O.3     1  UNL1       -0.3263
     37 H          15.3601   71.0557   -5.7999 H       1  UNL1        0.2105
     38 H          16.7178   70.3048   -2.7880 H       1  UNL1        0.2105
     39 C          17.7481   72.7892   -7.9887 C.2     1  UNL1        0.2231
     40 C          17.6633   73.6488   -9.2241 C.3     1  UNL1        0.0946
     41 N          18.3368   71.5792   -8.0484 N.am    1  UNL1       -0.2994
     42 O          17.2856   73.1866   -6.9406 O.2     1  UNL1       -0.2751
     43 H          18.7068   71.2608   -8.8870 H       1  UNL1        0.1496
     44 C          19.1213   69.8665   -2.7309 C.3     1  UNL1        0.1693
     45 O          18.3056   68.6933   -2.7124 O.3     1  UNL1       -0.3794
     46 H          18.4607   68.2580   -1.8633 H       1  UNL1        0.2105
@<TRIPOS>BOND
     1    29    30    1
     2    29    28    1
     3    29    36    1
     4    30    31    1
     5    30    41    1
     6    31    32    1
     7    31    34    1
     8    32    33    1
     9    32    35    1
    10    33    44    1
    11    33    36    1
    12    44    45    1
    13    39    40    1
    14    39    41   am
    15    39    42    2
    16    41    43    1
    17    28    25    1
    18    34    37    1
    19    35    38    1
    20    45    46    1
    21    15    16   ar
    22    15    20   ar
    23    15     6    1
    24    16    17   ar
    25    16    21    2
    26    17    18   ar
    27    17    23    1
    28    18    19   ar
    29    18    22    2
    30    19    20   ar
    31     6     7    1
    32     6    11    1
    33     7     8    1
    34     7     9    1
    35     8    13    1
    36     9    10    1
    37     9    12    1
    38    10    11    1
    39    10     5    1
    40    12    14    1
    41     5     4    1
    42     4     1    1
    43     1     2    2
    44     1     3    1
    45     1    24    1
    46    24    25    1
    47    25    26    2
    48    25    27    1
@<TRIPOS>MOLECULE
UD1
 46 48 0 0 0
SMALL
GASTEIGER

@<TRIPOS>ATOM
      1 P          22.6869   72.0832   -3.3398 P.3     1  UNL1        0.2189
      2 O          23.2566   70.7216   -3.2394 O.2     1  UNL1       -0.5170
      3 O          23.8800   73.1642   -3.3594 O.3     1  UNL1       -0.4371
      4 O          21.7337   72.3604   -2.0720 O.3     1  UNL1       -0.3112
      5 C          22.4325   73.2690   -1.2197 C.3     1  UNL1        0.1811
      6 C          22.7401   73.1947    2.3618 C.3     1  UNL1        0.2383
      7 C          21.2784   72.7600    2.0887 C.3     1  UNL1        0.1895
      8 O          20.8167   71.8584    3.0952 O.3     1  UNL1       -0.3779
      9 C          21.4022   72.0438    0.7187 C.3     1  UNL1        0.1713
     10 C          22.7126   72.5958    0.1248 C.3     1  UNL1        0.1764
     11 O          23.2334   73.5601    1.0554 O.3     1  UNL1       -0.3308
     12 O          21.4846   70.6284    0.8997 O.3     1  UNL1       -0.3794
     13 H          19.9052   71.6278    2.8680 H       1  UNL1        0.2106
     14 H          20.6630   70.3534    1.3280 H       1  UNL1        0.2105
     15 N          22.7799   74.3428    3.2683 N.ar    1  UNL1       -0.2551
     16 C          21.8146   75.2763    3.2038 C.ar    1  UNL1        0.3323
     17 N          21.8237   76.3408    4.0278 N.ar    1  UNL1       -0.2743
     18 C          22.8134   76.4927    4.9308 C.ar    1  UNL1        0.2626
     19 C          23.8391   75.5205    5.0053 C.ar    1  UNL1        0.0795
     20 C          23.8027   74.4599    4.1704 C.ar    1  UNL1        0.0869
     21 O          20.9152   75.1533    2.3948 O.2     1  UNL1       -0.2464
     22 O          22.8252   77.4572    5.6730 O.2     1  UNL1       -0.2670
     23 H          21.1168   77.0021    3.9707 H       1  UNL1        0.1734
     24 O          21.8273   72.2067   -4.6943 O.3     1  UNL1       -0.2703
     25 P          20.4045   71.5120   -4.4070 P.3     1  UNL1        0.2208
     26 O          19.5926   72.3921   -3.5380 O.2     1  UNL1       -0.5170
     27 O          20.6355   70.0984   -3.6719 O.3     1  UNL1       -0.4371
     28 O          19.6324   71.2718   -5.7986 O.3     1  UNL1       -0.2865
     29 C          19.1040   72.5360   -6.2031 C.3     1  UNL1        0.2611
     30 C          17.6278   72.3726   -6.5692 C.3     1  UNL1        0.1582
     31 C          17.5027   71.3467   -7.7012 C.3     1  UNL1        0.1625
     32 C          18.4169   71.7749   -8.8540 C.3     1  UNL1        0.1686
     33 C          19.8345   71.9805   -8.3160 C.3     1  UNL1        0.1760
     34 O          16.1483   71.2953   -8.1534 O.3     1  UNL1       -0.3801
     35 O          18.4280   70.7584   -9.8581 O.3     1  UNL1       -0.3794
     36 O          19.8316   73.0144   -7.3323 O.3     1  UNL1       -0.3263
     37 H          16.1154   70.6392   -8.8631 H       1  UNL1        0.2105
     38 H          19.0147   71.0677  -10.5628 H       1  UNL1        0.2105
     39 C          16.2497   72.7906   -4.6044 C.2     1  UNL1        0.2231
     40 C          15.4821   72.3092   -3.3997 C.3     1  UNL1        0.0946
     41 N          16.8816   71.9054   -5.3991 N.am    1  UNL1       -0.2994
     42 O          16.2990   73.9752   -4.8582 O.2     1  UNL1       -0.2751
     43 H          16.8425   70.9574   -5.1960 H       1  UNL1        0.1496
     44 C          20.7626   72.3770   -9.4660 C.3     1  UNL1        0.1693
     45 O          21.9417   72.9879   -8.9380 O.3     1  UNL1       -0.3794
     46 H          22.4976   73.2222   -9.6934 H       1  UNL1        0.2105
@<TRIPOS>BOND
     1    29    30    1
     2    29    28    1
     3    29    36    1
     4    30    31    1
     5    30    41    1
     6    31    32    1
     7    31    34    1
     8    32    33    1
     9    32    35    1
    10    33    44    1
    11    33    36    1
    12    44    45    1
    13    39    40    1
    14    39    41   am
    15    39    42    2
    16    41    43    1
    17    28    25    1
    18    34    37    1
    19    35    38    1
    20    45    46    1
    21    15    16   ar
    22    15    20   ar
    23    15     6    1
    24    16    17   ar
    25    16    21    2
    26    17    18   ar
    27    17    23    1
    28    18    19   ar
    29    18    22    2
    30    19    20   ar
    31     6     7    1
    32     6    11    1
    33     7     8    1
    34     7     9    1
    35     8    13    1
    36     9    10    1
    37     9    12    1
    38    10    11    1
    39    10     5    1
    40    12    14    1
    41     5     4    1
    42     4     1    1
    43     1     2    2
    44     1     3    1
    45     1    24    1
    46    24    25    1
    47    25    26    2
    48    25    27    1
@<TRIPOS>MOLECULE
UD1
 46 48 0 0 0
SMALL
GASTEIGER

@<TRIPOS>ATOM
      1 P          24.5419   75.2221   -3.6253 P.3     1  UNL1        0.2189
      2 O          24.7106   76.5675   -3.0335 O.2     1  UNL1       -0.5170
      3 O          23.9236   75.3604   -5.1055 O.3     1  UNL1       -0.4371
      4 O          23.5441   74.3538   -2.7070 O.3     1  UNL1       -0.3112
      5 C          22.6840   73.6368   -3.5938 C.3     1  UNL1        0.1811
      6 C          20.0929   71.1758   -3.1972 C.3     1  UNL1        0.2383
      7 C          21.3765   70.3491   -3.4605 C.3     1  UNL1        0.1895
      8 O          21.3156   69.0857   -2.7978 O.3     1  UNL1       -0.3779
      9 C          22.4762   71.2481   -2.8381 C.3     1  UNL1        0.1713
     10 C          21.8344   72.6483   -2.7935 C.3     1  UNL1        0.1764
     11 O          20.5265   72.5403   -3.3810 O.3     1  UNL1       -0.3308
     12 O          22.8039   70.7988   -1.5214 O.3     1  UNL1       -0.3794
     13 H          22.1400   68.6225   -3.0014 H       1  UNL1        0.2106
     14 H          23.1434   69.8983   -1.6101 H       1  UNL1        0.2105
     15 N          19.0470   70.8323   -4.1612 N.ar    1  UNL1       -0.2551
     16 C          18.1128   69.9222   -3.8348 C.ar    1  UNL1        0.3323
     17 N          17.1367   69.5898   -4.7002 N.ar    1  UNL1       -0.2743
     18 C          17.0863   70.1619   -5.9201 C.ar    1  UNL1        0.2626
     19 C          18.0669   71.1171   -6.2790 C.ar    1  UNL1        0.0795
     20 C          19.0317   71.4360   -5.3897 C.ar    1  UNL1        0.0869
     21 O          18.1449   69.3975   -2.7383 O.2     1  UNL1       -0.2464
     22 O          16.2070   69.8586   -6.7051 O.2     1  UNL1       -0.2670
     23 H          16.4683   68.9349   -4.4463 H       1  UNL1        0.1734
     24 O          25.9716   74.4883   -3.7062 O.3     1  UNL1       -0.2703
     25 P          26.9402   75.4501   -4.5583 P.3     1  UNL1        0.2208
     26 O          27.6420   76.3780   -3.6445 O.2     1  UNL1       -0.5170
     27 O          26.0655   76.2958   -5.6128 O.3     1  UNL1       -0.4371
     28 O          28.0204   74.5591   -5.3519 O.3     1  UNL1       -0.2865
     29 C          28.9022   75.4683   -6.0130 C.3     1  UNL1        0.2611
     30 C          28.9778   75.1088   -7.4979 C.3     1  UNL1        0.1582
     31 C          29.4805   73.6677   -7.6398 C.3     1  UNL1        0.1625
     32 C          30.7969   73.5296   -6.8677 C.3     1  UNL1        0.1686
     33 C          30.5832   74.0054   -5.4292 C.3     1  UNL1        0.1760
     34 O          29.6977   73.3701   -9.0203 O.3     1  UNL1       -0.3801
     35 O          31.2073   72.1609   -6.8639 O.3     1  UNL1       -0.3794
     36 O          30.1996   75.3799   -5.4280 O.3     1  UNL1       -0.3263
     37 H          30.0121   72.4565   -9.0630 H       1  UNL1        0.2105
     38 H          32.0373   72.1192   -6.3680 H       1  UNL1        0.2105
     39 C          27.5107   75.7195   -9.3443 C.2     1  UNL1        0.2231
     40 C          26.1410   75.8401   -9.9620 C.3     1  UNL1        0.0946
     41 N          27.6474   75.2257   -8.0986 N.am    1  UNL1       -0.2994
     42 O          28.4901   76.0678   -9.9685 O.2     1  UNL1       -0.2751
     43 H          26.8638   74.9471   -7.5988 H       1  UNL1        0.1496
     44 C          31.8839   73.8410   -4.6404 C.3     1  UNL1        0.1693
     45 O          31.6001   73.8760   -3.2403 O.3     1  UNL1       -0.3794
     46 H          32.4441   73.7697   -2.7810 H       1  UNL1        0.2105
@<TRIPOS>BOND
     1    29    30    1
     2    29    28    1
     3    29    36    1
     4    30    31    1
     5    30    41    1
     6    31    32    1
     7    31    34    1
     8    32    33    1
     9    32    35    1
    10    33    44    1
    11    33    36    1
    12    44    45    1
    13    39    40    1
    14    39    41   am
    15    39    42    2
    16    41    43    1
    17    28    25    1
    18    34    37    1
    19    35    38    1
    20    45    46    1
    21    15    16   ar
    22    15    20   ar
    23    15     6    1
    24    16    17   ar
    25    16    21    2
    26    17    18   ar
    27    17    23    1
    28    18    19   ar
    29    18    22    2
    30    19    20   ar
    31     6     7    1
    32     6    11    1
    33     7     8    1
    34     7     9    1
    35     8    13    1
    36     9    10    1
    37     9    12    1
    38    10    11    1
    39    10     5    1
    40    12    14    1
    41     5     4    1
    42     4     1    1
    43     1     2    2
    44     1     3    1
    45     1    24    1
    46    24    25    1
    47    25    26    2
    48    25    27    1
