@<TRIPOS>MOLECULE
UD2
 46 48 0 0 0
SMALL
GASTEIGER

@<TRIPOS>ATOM
      1 P          22.3102   71.3218   -2.9178 P.3     1  UNL1        0.2189
      2 O          22.0812   69.7385   -3.0976 O.3     1  UNL1       -0.4371
      3 O          23.4771   71.7465   -3.7221 O.2     1  UNL1       -0.5170
      4 O          20.9988   72.1134   -3.4150 O.3     1  UNL1       -0.3112
      5 C          19.9474   72.5076   -2.5315 C.3     1  UNL1        0.1811
      6 C          17.8196   71.4773   -5.2421 C.3     1  UNL1        0.2383
      7 C          17.9206   70.2285   -4.3296 C.3     1  UNL1        0.1895
      8 O          16.7248   69.4493   -4.3974 O.3     1  UNL1       -0.3779
      9 C          18.0877   70.8631   -2.9272 C.3     1  UNL1        0.1713
     10 C          18.5965   72.2881   -3.2169 C.3     1  UNL1        0.1764
     11 O          18.7456   72.4080   -4.6406 O.3     1  UNL1       -0.3308
     12 O          16.8321   70.9084   -2.2473 O.3     1  UNL1       -0.3794
     13 H          16.7396   68.6567   -3.8439 H       1  UNL1        0.2106
     14 H          16.4369   70.0401   -2.0913 H       1  UNL1        0.2105
     15 N          18.2302   71.1514   -6.6097 N.ar    1  UNL1       -0.2551
     16 C          17.3017   70.8111   -7.5211 C.ar    1  UNL1        0.3323
     17 N          17.6505   70.5065   -8.7851 N.ar    1  UNL1       -0.2743
     18 C          18.9459   70.5404   -9.1586 C.ar    1  UNL1        0.2626
     19 C          19.9338   70.8980   -8.2097 C.ar    1  UNL1        0.0795
     20 C          19.5551   71.2026   -6.9506 C.ar    1  UNL1        0.0869
     21 O          16.1299   70.7765   -7.1984 O.2     1  UNL1       -0.2464
     22 O          19.2629   70.2654  -10.3025 O.2     1  UNL1       -0.2670
     23 H          16.9684   70.2620   -9.4294 H       1  UNL1        0.1734
     24 O          22.5793   71.6525   -1.3649 O.3     1  UNL1       -0.2703
     25 P          22.5121   70.7858   -0.0094 P.3     1  UNL1        0.2208
     26 O          21.1238   69.9709    0.0377 O.3     1  UNL1       -0.4371
     27 O          23.6437   69.8335    0.0241 O.2     1  UNL1       -0.5170
     28 O          22.6006   71.7701    1.2618 O.3     1  UNL1       -0.2865
     29 C          21.7920   72.9400    1.3981 C.3     1  UNL1        0.2611
     30 C          22.6461   74.1843    1.1433 C.3     1  UNL1        0.1582
     31 C          23.7530   74.2583    2.1996 C.3     1  UNL1        0.1625
     32 C          23.1156   74.2669    3.5917 C.3     1  UNL1        0.1686
     33 C          22.2432   73.0190    3.7522 C.3     1  UNL1        0.1760
     34 O          24.5107   75.4561    2.0138 O.3     1  UNL1       -0.3801
     35 O          22.3089   75.4366    3.7405 O.3     1  UNL1       -0.3794
     36 O          21.2542   72.9954    2.7210 O.3     1  UNL1       -0.3263
     37 H          25.2309   75.5679    2.6493 H       1  UNL1        0.2105
     38 H          21.8726   75.5075    4.6011 H       1  UNL1        0.2105
     39 C          23.2729   75.1874   -0.9871 C.2     1  UNL1        0.2231
     40 C          23.8904   75.1024   -2.3583 C.3     1  UNL1        0.0946
     41 N          23.2467   74.1008   -0.1904 N.am    1  UNL1       -0.2994
     42 O          22.7984   76.2346   -0.5992 O.2     1  UNL1       -0.2751
     43 H          23.6251   73.2631   -0.5005 H       1  UNL1        0.1496
     44 C          21.5555   73.0501    5.1184 C.3     1  UNL1        0.1693
     45 O          22.4827   73.4984    6.1092 O.3     1  UNL1       -0.3794
     46 H          22.1141   73.5428    7.0021 H       1  UNL1        0.2105
@<TRIPOS>BOND
     1    29    30    1
     2    30    41    1
     3    30    31    1
     4    31    34    1
     5    31    32    1
     6    32    35    1
     7    32    33    1
     8    33    36    1
     9    33    44    1
    10    39    40    1
    11    39    42    2
    12    39    41   am
    13    41    43    1
    14    29    28    1
    15    34    37    1
    16    35    38    1
    17    29    36    1
    18    44    45    1
    19    45    46    1
    20    15     6    1
    21    15    16   ar
    22    16    21    2
    23    16    17   ar
    24    17    23    1
    25    17    18   ar
    26    18    19   ar
    27    19    20   ar
    28    15    20   ar
    29    18    22    2
    30     6     7    1
    31     6    11    1
    32     7     9    1
    33     7     8    1
    34     8    13    1
    35     9    10    1
    36     9    12    1
    37    10     5    1
    38    10    11    1
    39    12    14    1
    40     5     4    1
    41     4     1    1
    42     1     2    1
    43     1    24    1
    44     1     3    2
    45    24    25    1
    46    28    25    1
    47    25    26    1
    48    25    27    2
@<TRIPOS>MOLECULE
UD2
 46 48 0 0 0
SMALL
GASTEIGER

@<TRIPOS>ATOM
      1 P          22.8083   72.0627   -3.3691 P.3     1  UNL1        0.2189
      2 O          23.3512   70.5484   -3.3096 O.3     1  UNL1       -0.4371
      3 O          23.5324   72.8060   -4.4237 O.2     1  UNL1       -0.5170
      4 O          21.2328   72.0549   -3.7033 O.3     1  UNL1       -0.3112
      5 C          20.2247   72.1830   -2.6989 C.3     1  UNL1        0.1811
      6 C          17.9631   71.3266   -5.3613 C.3     1  UNL1        0.2383
      7 C          18.0384   70.0486   -4.4876 C.3     1  UNL1        0.1895
      8 O          16.8072   69.3250   -4.5352 O.3     1  UNL1       -0.3779
      9 C          18.2808   70.6341   -3.0749 C.3     1  UNL1        0.1713
     10 C          18.8431   72.0432   -3.3427 C.3     1  UNL1        0.1764
     11 O          18.9497   72.1978   -4.7669 O.3     1  UNL1       -0.3308
     12 O          17.0520   70.7148   -2.3508 O.3     1  UNL1       -0.3794
     13 H          16.8049   68.5168   -4.0047 H       1  UNL1        0.2106
     14 H          16.6236   69.8606   -2.2051 H       1  UNL1        0.2105
     15 N          18.3126   71.0229   -6.7507 N.ar    1  UNL1       -0.2551
     16 C          17.3414   70.7275   -7.6329 C.ar    1  UNL1        0.3323
     17 N          17.6337   70.4443   -8.9161 N.ar    1  UNL1       -0.2743
     18 C          18.9143   70.4545   -9.3387 C.ar    1  UNL1        0.2626
     19 C          19.9466   70.7647   -8.4210 C.ar    1  UNL1        0.0795
     20 C          19.6244   71.0489   -7.1416 C.ar    1  UNL1        0.0869
     21 O          16.1823   70.7148   -7.2659 O.2     1  UNL1       -0.2464
     22 O          19.1801   70.1987  -10.4999 O.2     1  UNL1       -0.2670
     23 H          16.9213   70.2322   -9.5388 H       1  UNL1        0.1734
     24 O          23.0508   72.7764   -1.9461 O.3     1  UNL1       -0.2703
     25 P          23.0842   74.3099   -1.4559 P.3     1  UNL1        0.2208
     26 O          24.6082   74.8298   -1.4250 O.3     1  UNL1       -0.4371
     27 O          22.2979   75.1442   -2.3908 O.2     1  UNL1       -0.5170
     28 O          22.4508   74.4151    0.0207 O.3     1  UNL1       -0.2865
     29 C          21.2439   73.7506    0.3992 C.3     1  UNL1        0.2611
     30 C          20.7585   74.2987    1.7433 C.3     1  UNL1        0.1582
     31 C          21.8101   74.0001    2.8164 C.3     1  UNL1        0.1625
     32 C          22.0629   72.4907    2.8622 C.3     1  UNL1        0.1686
     33 C          22.4982   72.0123    1.4745 C.3     1  UNL1        0.1760
     34 O          21.3326   74.4432    4.0888 O.3     1  UNL1       -0.3801
     35 O          20.8628   71.8168    3.2456 O.3     1  UNL1       -0.3794
     36 O          21.4903   72.3480    0.5188 O.3     1  UNL1       -0.3263
     37 H          21.9497   74.2860    4.8165 H       1  UNL1        0.2105
     38 H          20.9497   70.8545    3.2945 H       1  UNL1        0.2105
     39 C          21.5648   76.5876    1.9632 C.2     1  UNL1        0.2231
     40 C          21.3643   78.0766    1.8562 C.3     1  UNL1        0.0946
     41 N          20.5626   75.7469    1.6393 N.am    1  UNL1       -0.2994
     42 O          22.6291   76.1443    2.3411 O.2     1  UNL1       -0.2751
     43 H          19.7112   76.1009    1.3380 H       1  UNL1        0.1496
     44 C          22.6952   70.4953    1.4969 C.3     1  UNL1        0.1693
     45 O          21.6122   69.8634    0.8112 O.3     1  UNL1       -0.3794
     46 H          21.6713   68.8986    0.7861 H       1  UNL1        0.2105
@<TRIPOS>BOND
     1    29    30    1
     2    30    41    1
     3    30    31    1
     4    31    34    1
     5    31    32    1
     6    32    35    1
     7    32    33    1
     8    33    36    1
     9    33    44    1
    10    39    40    1
    11    39    42    2
    12    39    41   am
    13    41    43    1
    14    29    28    1
    15    34    37    1
    16    35    38    1
    17    29    36    1
    18    44    45    1
    19    45    46    1
    20    15     6    1
    21    15    16   ar
    22    16    21    2
    23    16    17   ar
    24    17    23    1
    25    17    18   ar
    26    18    19   ar
    27    19    20   ar
    28    15    20   ar
    29    18    22    2
    30     6     7    1
    31     6    11    1
    32     7     9    1
    33     7     8    1
    34     8    13    1
    35     9    10    1
    36     9    12    1
    37    10     5    1
    38    10    11    1
    39    12    14    1
    40     5     4    1
    41     4     1    1
    42     1     2    1
    43     1    24    1
    44     1     3    2
    45    24    25    1
    46    28    25    1
    47    25    26    1
    48    25    27    2
@<TRIPOS>MOLECULE
UD2
 46 48 0 0 0
SMALL
GASTEIGER

@<TRIPOS>ATOM
      1 P          21.8589   70.4212   -0.4168 P.3     1  UNL1        0.2189
      2 O          22.1692   68.9229    0.0833 O.3     1  UNL1       -0.4371
      3 O          23.1155   71.0643   -0.8600 O.2     1  UNL1       -0.5170
      4 O          20.8188   70.3720   -1.6454 O.3     1  UNL1       -0.3112
      5 C          20.7946   71.3540   -2.6830 C.3     1  UNL1        0.1811
      6 C          18.2645   71.0961   -5.2263 C.3     1  UNL1        0.2383
      7 C          18.1933   69.7465   -4.4675 C.3     1  UNL1        0.1895
      8 O          16.8634   69.2240   -4.4798 O.3     1  UNL1       -0.3779
      9 C          18.6124   70.1566   -3.0345 C.3     1  UNL1        0.1713
     10 C          19.3706   71.4836   -3.2291 C.3     1  UNL1        0.1764
     11 O          19.4106   71.7505   -4.6400 O.3     1  UNL1       -0.3308
     12 O          17.4593   70.3545   -2.2148 O.3     1  UNL1       -0.3794
     13 H          16.7679   68.3801   -4.0179 H       1  UNL1        0.2106
     14 H          16.9124   69.5648   -2.1067 H       1  UNL1        0.2105
     15 N          18.4743   70.8722   -6.6584 N.ar    1  UNL1       -0.2551
     16 C          17.4136   70.7475   -7.4758 C.ar    1  UNL1        0.3323
     17 N          17.5769   70.5409   -8.7960 N.ar    1  UNL1       -0.2743
     18 C          18.8159   70.4574   -9.3218 C.ar    1  UNL1        0.2626
     19 C          19.9414   70.5879   -8.4731 C.ar    1  UNL1        0.0795
     20 C          19.7483   70.7986   -7.1540 C.ar    1  UNL1        0.0869
     21 O          16.2906   70.8209   -7.0156 O.2     1  UNL1       -0.2464
     22 O          18.9651   70.2709  -10.5166 O.2     1  UNL1       -0.2670
     23 H          16.8013   70.4520   -9.3711 H       1  UNL1        0.1734
     24 O          21.2192   71.2696    0.7933 O.3     1  UNL1       -0.2703
     25 P          21.8348   72.0390    2.0669 P.3     1  UNL1        0.2208
     26 O          20.6477   72.4288    3.0831 O.3     1  UNL1       -0.4371
     27 O          22.8032   71.1578    2.7553 O.2     1  UNL1       -0.5170
     28 O          22.5821   73.3779    1.5752 O.3     1  UNL1       -0.2865
     29 C          22.3643   74.6560    2.1753 C.3     1  UNL1        0.2611
     30 C          23.0141   75.7422    1.3147 C.3     1  UNL1        0.1582
     31 C          24.5264   75.5041    1.2634 C.3     1  UNL1        0.1625
     32 C          25.0785   75.4873    2.6914 C.3     1  UNL1        0.1686
     33 C          24.3489   74.4106    3.4991 C.3     1  UNL1        0.1760
     34 O          25.1502   76.5555    0.5226 O.3     1  UNL1       -0.3801
     35 O          24.8707   76.7637    3.2989 O.3     1  UNL1       -0.3794
     36 O          22.9445   74.6738    3.4812 O.3     1  UNL1       -0.3263
     37 H          26.1105   76.4682    0.4490 H       1  UNL1        0.2105
     38 H          25.1964   76.8251    4.2079 H       1  UNL1        0.2105
     39 C          23.0557   74.9203   -0.9788 C.2     1  UNL1        0.2231
     40 C          22.4900   74.8623   -2.3735 C.3     1  UNL1        0.0946
     41 N          22.4634   75.6865   -0.0418 N.am    1  UNL1       -0.2994
     42 O          24.0455   74.2770   -0.6983 O.2     1  UNL1       -0.2751
     43 H          21.6726   76.2018   -0.2659 H       1  UNL1        0.1496
     44 C          24.8530   74.4277    4.9435 C.3     1  UNL1        0.1693
     45 O          26.2528   74.7152    4.9569 O.3     1  UNL1       -0.3794
     46 H          26.6409   74.7419    5.8421 H       1  UNL1        0.2105
@<TRIPOS>BOND
     1    29    30    1
     2    30    41    1
     3    30    31    1
     4    31    34    1
     5    31    32    1
     6    32    35    1
     7    32    33    1
     8    33    36    1
     9    33    44    1
    10    39    40    1
    11    39    42    2
    12    39    41   am
    13    41    43    1
    14    29    28    1
    15    34    37    1
    16    35    38    1
    17    29    36    1
    18    44    45    1
    19    45    46    1
    20    15     6    1
    21    15    16   ar
    22    16    21    2
    23    16    17   ar
    24    17    23    1
    25    17    18   ar
    26    18    19   ar
    27    19    20   ar
    28    15    20   ar
    29    18    22    2
    30     6     7    1
    31     6    11    1
    32     7     9    1
    33     7     8    1
    34     8    13    1
    35     9    10    1
    36     9    12    1
    37    10     5    1
    38    10    11    1
    39    12    14    1
    40     5     4    1
    41     4     1    1
    42     1     2    1
    43     1    24    1
    44     1     3    2
    45    24    25    1
    46    28    25    1
    47    25    26    1
    48    25    27    2
@<TRIPOS>MOLECULE
UD2
 46 48 0 0 0
SMALL
GASTEIGER

@<TRIPOS>ATOM
      1 P          22.9143   72.1786   -3.2204 P.3     1  UNL1        0.2189
      2 O          23.5054   70.6832   -3.1445 O.3     1  UNL1       -0.4371
      3 O          23.6129   72.9325   -4.2846 O.2     1  UNL1       -0.5170
      4 O          21.3394   72.1168   -3.5518 O.3     1  UNL1       -0.3112
      5 C          20.3396   71.9459   -2.5455 C.3     1  UNL1        0.1811
      6 C          18.0276   71.3624   -5.2382 C.3     1  UNL1        0.2383
      7 C          17.9857   70.0598   -4.3995 C.3     1  UNL1        0.1895
      8 O          16.6963   69.4482   -4.4711 O.3     1  UNL1       -0.3779
      9 C          18.2700   70.5837   -2.9705 C.3     1  UNL1        0.1713
     10 C          18.9549   71.9449   -3.1978 C.3     1  UNL1        0.1764
     11 O          19.0830   72.1277   -4.6169 O.3     1  UNL1       -0.3308
     12 O          17.0487   70.7522   -2.2488 O.3     1  UNL1       -0.3794
     13 H          16.6203   68.6294   -3.9628 H       1  UNL1        0.2106
     14 H          16.5465   69.9351   -2.1280 H       1  UNL1        0.2105
     15 N          18.3574   71.0667   -6.6342 N.ar    1  UNL1       -0.2551
     16 C          17.3698   70.8411   -7.5189 C.ar    1  UNL1        0.3323
     17 N          17.6438   70.5669   -8.8081 N.ar    1  UNL1       -0.2743
     18 C          18.9223   70.5159   -9.2342 C.ar    1  UNL1        0.2626
     19 C          19.9717   70.7524   -8.3140 C.ar    1  UNL1        0.0795
     20 C          19.6678   71.0292   -7.0285 C.ar    1  UNL1        0.0869
     21 O          16.2125   70.8841   -7.1487 O.2     1  UNL1       -0.2464
     22 O          19.1716   70.2682  -10.4008 O.2     1  UNL1       -0.2670
     23 H          16.9198   70.4055   -9.4325 H       1  UNL1        0.1734
     24 O          23.1358   72.9160   -1.8060 O.3     1  UNL1       -0.2703
     25 P          22.9840   74.4381   -1.3030 P.3     1  UNL1        0.2208
     26 O          24.3852   75.2085   -1.4954 O.3     1  UNL1       -0.4371
     27 O          21.9355   75.1175   -2.0951 O.2     1  UNL1       -0.5170
     28 O          22.5737   74.4504    0.2539 O.3     1  UNL1       -0.2865
     29 C          23.3392   73.7938    1.2659 C.3     1  UNL1        0.2611
     30 C          22.5083   72.6676    1.8856 C.3     1  UNL1        0.1582
     31 C          21.2692   73.2687    2.5563 C.3     1  UNL1        0.1625
     32 C          21.7146   74.3009    3.5957 C.3     1  UNL1        0.1686
     33 C          22.5763   75.3644    2.9099 C.3     1  UNL1        0.1760
     34 O          20.5254   72.2321    3.2008 O.3     1  UNL1       -0.3801
     35 O          22.4767   73.6531    4.6160 O.3     1  UNL1       -0.3794
     36 O          23.6945   74.7358    2.2802 O.3     1  UNL1       -0.3263
     37 H          19.7250   72.5418    3.6466 H       1  UNL1        0.2105
     38 H          22.7930   74.2487    5.3097 H       1  UNL1        0.2105
     39 C          22.5063   70.4505    0.8747 C.2     1  UNL1        0.2231
     40 C          22.0792   69.4884   -0.2026 C.3     1  UNL1        0.0946
     41 N          22.0926   71.7325    0.8372 N.am    1  UNL1       -0.2994
     42 O          23.2234   70.0715    1.7771 O.2     1  UNL1       -0.2751
     43 H          21.5200   72.0361    0.1154 H       1  UNL1        0.1496
     44 C          23.0748   76.3667    3.9527 C.3     1  UNL1        0.1693
     45 O          22.2182   76.3315    5.0960 O.3     1  UNL1       -0.3794
     46 H          22.4748   76.9434    5.7994 H       1  UNL1        0.2105
@<TRIPOS>BOND
     1    29    30    1
     2    30    41    1
     3    30    31    1
     4    31    34    1
     5    31    32    1
     6    32    35    1
     7    32    33    1
     8    33    36    1
     9    33    44    1
    10    39    40    1
    11    39    42    2
    12    39    41   am
    13    41    43    1
    14    29    28    1
    15    34    37    1
    16    35    38    1
    17    29    36    1
    18    44    45    1
    19    45    46    1
    20    15     6    1
    21    15    16   ar
    22    16    21    2
    23    16    17   ar
    24    17    23    1
    25    17    18   ar
    26    18    19   ar
    27    19    20   ar
    28    15    20   ar
    29    18    22    2
    30     6     7    1
    31     6    11    1
    32     7     9    1
    33     7     8    1
    34     8    13    1
    35     9    10    1
    36     9    12    1
    37    10     5    1
    38    10    11    1
    39    12    14    1
    40     5     4    1
    41     4     1    1
    42     1     2    1
    43     1    24    1
    44     1     3    2
    45    24    25    1
    46    28    25    1
    47    25    26    1
    48    25    27    2
@<TRIPOS>MOLECULE
UD2
 46 48 0 0 0
SMALL
GASTEIGER

@<TRIPOS>ATOM
      1 P          21.9289   70.7650   -0.4087 P.3     1  UNL1        0.2189
      2 O          21.5664   69.4905    0.5053 O.3     1  UNL1       -0.4371
      3 O          23.0362   70.4162   -1.3259 O.2     1  UNL1       -0.5170
      4 O          20.6359   71.1946   -1.2674 O.3     1  UNL1       -0.3112
      5 C          20.6988   71.5186   -2.6575 C.3     1  UNL1        0.1811
      6 C          18.2098   71.1639   -5.2296 C.3     1  UNL1        0.2383
      7 C          18.1573   69.8258   -4.4493 C.3     1  UNL1        0.1895
      8 O          16.8393   69.2743   -4.4706 O.3     1  UNL1       -0.3779
      9 C          18.5479   70.2684   -3.0179 C.3     1  UNL1        0.1713
     10 C          19.2799   71.6082   -3.2247 C.3     1  UNL1        0.1764
     11 O          19.3334   71.8527   -4.6392 O.3     1  UNL1       -0.3308
     12 O          17.3796   70.4546   -2.2171 O.3     1  UNL1       -0.3794
     13 H          16.7556   68.4362   -3.9960 H       1  UNL1        0.2106
     14 H          16.8484   69.6551   -2.1032 H       1  UNL1        0.2105
     15 N          18.4440   70.9211   -6.6548 N.ar    1  UNL1       -0.2551
     16 C          17.3976   70.7585   -7.4839 C.ar    1  UNL1        0.3323
     17 N          17.5833   70.5338   -8.7982 N.ar    1  UNL1       -0.2743
     18 C          18.8309   70.4700   -9.3061 C.ar    1  UNL1        0.2626
     19 C          19.9416   70.6403   -8.4450 C.ar    1  UNL1        0.0795
     20 C          19.7259   70.8685   -7.1324 C.ar    1  UNL1        0.0869
     21 O          16.2670   70.8138   -7.0398 O.2     1  UNL1       -0.2464
     22 O          19.0004   70.2671  -10.4955 O.2     1  UNL1       -0.2670
     23 H          16.8178   70.4176   -9.3817 H       1  UNL1        0.1734
     24 O          22.3781   71.9912    0.5336 O.3     1  UNL1       -0.2703
     25 P          21.6595   72.8127    1.7175 P.3     1  UNL1        0.2208
     26 O          20.4648   73.7020    1.1045 O.3     1  UNL1       -0.4371
     27 O          21.1087   71.8658    2.7116 O.2     1  UNL1       -0.5170
     28 O          22.7343   73.7760    2.4312 O.3     1  UNL1       -0.2865
     29 C          22.9908   73.7498    3.8365 C.3     1  UNL1        0.2611
     30 C          22.1141   74.7916    4.5357 C.3     1  UNL1        0.1582
     31 C          22.4845   76.1861    4.0212 C.3     1  UNL1        0.1625
     32 C          23.9771   76.4276    4.2623 C.3     1  UNL1        0.1686
     33 C          24.7822   75.3225    3.5734 C.3     1  UNL1        0.1760
     34 O          21.7220   77.1713    4.7220 O.3     1  UNL1       -0.3801
     35 O          24.2434   76.4090    5.6659 O.3     1  UNL1       -0.3794
     36 O          24.3675   74.0502    4.0747 O.3     1  UNL1       -0.3263
     37 H          21.9054   78.0798    4.4458 H       1  UNL1        0.2105
     38 H          25.1725   76.5551    5.8926 H       1  UNL1        0.2105
     39 C          19.8838   74.0895    5.2218 C.2     1  UNL1        0.2231
     40 C          18.4343   73.8107    4.9221 C.3     1  UNL1        0.0946
     41 N          20.7043   74.5203    4.2433 N.am    1  UNL1       -0.2994
     42 O          20.3136   73.9264    6.3447 O.2     1  UNL1       -0.2751
     43 H          20.3614   74.6499    3.3452 H       1  UNL1        0.1496
     44 C          26.2716   75.5229    3.8595 C.3     1  UNL1        0.1693
     45 O          26.6373   74.7825    5.0259 O.3     1  UNL1       -0.3794
     46 H          27.5701   74.8633    5.2674 H       1  UNL1        0.2105
@<TRIPOS>BOND
     1    29    30    1
     2    30    41    1
     3    30    31    1
     4    31    34    1
     5    31    32    1
     6    32    35    1
     7    32    33    1
     8    33    36    1
     9    33    44    1
    10    39    40    1
    11    39    42    2
    12    39    41   am
    13    41    43    1
    14    29    28    1
    15    34    37    1
    16    35    38    1
    17    29    36    1
    18    44    45    1
    19    45    46    1
    20    15     6    1
    21    15    16   ar
    22    16    21    2
    23    16    17   ar
    24    17    23    1
    25    17    18   ar
    26    18    19   ar
    27    19    20   ar
    28    15    20   ar
    29    18    22    2
    30     6     7    1
    31     6    11    1
    32     7     9    1
    33     7     8    1
    34     8    13    1
    35     9    10    1
    36     9    12    1
    37    10     5    1
    38    10    11    1
    39    12    14    1
    40     5     4    1
    41     4     1    1
    42     1     2    1
    43     1    24    1
    44     1     3    2
    45    24    25    1
    46    28    25    1
    47    25    26    1
    48    25    27    2
@<TRIPOS>MOLECULE
UD2
 46 48 0 0 0
SMALL
GASTEIGER

@<TRIPOS>ATOM
      1 P          21.8161   70.5628   -0.1904 P.3     1  UNL1        0.2189
      2 O          22.1660   69.1481    0.4934 O.3     1  UNL1       -0.4371
      3 O          23.0428   71.1438   -0.7789 O.2     1  UNL1       -0.5170
      4 O          20.7179   70.3424   -1.3476 O.3     1  UNL1       -0.3112
      5 C          20.8574   70.8801   -2.6639 C.3     1  UNL1        0.1811
      6 C          18.3385   71.0906   -5.2227 C.3     1  UNL1        0.2383
      7 C          18.0454   69.7532   -4.4964 C.3     1  UNL1        0.1895
      8 O          16.6489   69.4519   -4.5264 O.3     1  UNL1       -0.3779
      9 C          18.5139   70.0578   -3.0524 C.3     1  UNL1        0.1713
     10 C          19.4770   71.2496   -3.2125 C.3     1  UNL1        0.1764
     11 O          19.5703   71.5386   -4.6165 O.3     1  UNL1       -0.3308
     12 O          17.4012   70.4199   -2.2329 O.3     1  UNL1       -0.3794
     13 H          16.4154   68.6240   -4.0851 H       1  UNL1        0.2106
     14 H          16.7336   69.7262   -2.1458 H       1  UNL1        0.2105
     15 N          18.5207   70.8686   -6.6588 N.ar    1  UNL1       -0.2551
     16 C          17.4469   70.8188   -7.4670 C.ar    1  UNL1        0.3323
     17 N          17.5847   70.6159   -8.7907 N.ar    1  UNL1       -0.2743
     18 C          18.8112   70.4602   -9.3293 C.ar    1  UNL1        0.2626
     19 C          19.9504   70.5113   -8.4904 C.ar    1  UNL1        0.0795
     20 C          19.7829   70.7203   -7.1676 C.ar    1  UNL1        0.0869
     21 O          16.3349   70.9578   -6.9951 O.2     1  UNL1       -0.2464
     22 O          18.9374   70.2768  -10.5272 O.2     1  UNL1       -0.2670
     23 H          16.7998   70.5816   -9.3589 H       1  UNL1        0.1734
     24 O          21.2274   71.5663    0.9230 O.3     1  UNL1       -0.2703
     25 P          21.8831   72.4029    2.1327 P.3     1  UNL1        0.2208
     26 O          22.7607   71.4152    3.0536 O.3     1  UNL1       -0.4371
     27 O          22.7524   73.4662    1.5831 O.2     1  UNL1       -0.5170
     28 O          20.7156   73.0684    3.0196 O.3     1  UNL1       -0.2865
     29 C          20.7125   74.4471    3.3942 C.3     1  UNL1        0.2611
     30 C          21.3846   74.6074    4.7599 C.3     1  UNL1        0.1582
     31 C          20.5771   73.8383    5.8101 C.3     1  UNL1        0.1625
     32 C          19.1355   74.3543    5.8085 C.3     1  UNL1        0.1686
     33 C          18.5499   74.2036    4.4019 C.3     1  UNL1        0.1760
     34 O          21.1560   74.0427    7.1010 O.3     1  UNL1       -0.3801
     35 O          19.1207   75.7317    6.1876 O.3     1  UNL1       -0.3794
     36 O          19.3649   74.9168    3.4696 O.3     1  UNL1       -0.3263
     37 H          20.6947   73.5828    7.8157 H       1  UNL1        0.2105
     38 H          18.2372   76.1255    6.2072 H       1  UNL1        0.2105
     39 C          23.8012   74.9107    4.6850 C.2     1  UNL1        0.2231
     40 C          25.2020   74.3606    4.6244 C.3     1  UNL1        0.0946
     41 N          22.7469   74.0715    4.7008 N.am    1  UNL1       -0.2994
     42 O          23.6213   76.1101    4.7194 O.2     1  UNL1       -0.2751
     43 H          22.8902   73.1125    4.6722 H       1  UNL1        0.1496
     44 C          17.1298   74.7719    4.3774 C.3     1  UNL1        0.1693
     45 O          16.8757   75.4738    5.5961 O.3     1  UNL1       -0.3794
     46 H          15.9915   75.8616    5.6503 H       1  UNL1        0.2105
@<TRIPOS>BOND
     1    29    30    1
     2    30    41    1
     3    30    31    1
     4    31    34    1
     5    31    32    1
     6    32    35    1
     7    32    33    1
     8    33    36    1
     9    33    44    1
    10    39    40    1
    11    39    42    2
    12    39    41   am
    13    41    43    1
    14    29    28    1
    15    34    37    1
    16    35    38    1
    17    29    36    1
    18    44    45    1
    19    45    46    1
    20    15     6    1
    21    15    16   ar
    22    16    21    2
    23    16    17   ar
    24    17    23    1
    25    17    18   ar
    26    18    19   ar
    27    19    20   ar
    28    15    20   ar
    29    18    22    2
    30     6     7    1
    31     6    11    1
    32     7     9    1
    33     7     8    1
    34     8    13    1
    35     9    10    1
    36     9    12    1
    37    10     5    1
    38    10    11    1
    39    12    14    1
    40     5     4    1
    41     4     1    1
    42     1     2    1
    43     1    24    1
    44     1     3    2
    45    24    25    1
    46    28    25    1
    47    25    26    1
    48    25    27    2
@<TRIPOS>MOLECULE
UD2
 46 48 0 0 0
SMALL
GASTEIGER

@<TRIPOS>ATOM
      1 P          21.8386   70.5930   -0.2141 P.3     1  UNL1        0.2189
      2 O          21.8945   69.4440    0.9120 O.3     1  UNL1       -0.4371
      3 O          23.1673   70.7252   -0.8512 O.2     1  UNL1       -0.5170
      4 O          20.7456   70.1986   -1.3292 O.3     1  UNL1       -0.3112
      5 C          20.8754   70.5579   -2.7060 C.3     1  UNL1        0.1811
      6 C          18.3680   71.0079   -5.2451 C.3     1  UNL1        0.2383
      7 C          17.9852   69.6760   -4.5511 C.3     1  UNL1        0.1895
      8 O          16.5710   69.4734   -4.5811 O.3     1  UNL1       -0.3779
      9 C          18.4789   69.9105   -3.1024 C.3     1  UNL1        0.1713
     10 C          19.5221   71.0362   -3.2377 C.3     1  UNL1        0.1764
     11 O          19.6302   71.3536   -4.6345 O.3     1  UNL1       -0.3308
     12 O          17.3971   70.3282   -2.2681 O.3     1  UNL1       -0.3794
     13 H          16.2820   68.6528   -4.1595 H       1  UNL1        0.2106
     14 H          16.6832   69.6806   -2.1949 H       1  UNL1        0.2105
     15 N          18.5292   70.8102   -6.6874 N.ar    1  UNL1       -0.2551
     16 C          17.4448   70.7906   -7.4826 C.ar    1  UNL1        0.3323
     17 N          17.5633   70.6105   -8.8114 N.ar    1  UNL1       -0.2743
     18 C          18.7806   70.4479   -9.3684 C.ar    1  UNL1        0.2626
     19 C          19.9308   70.4675   -8.5433 C.ar    1  UNL1        0.0795
     20 C          19.7828   70.6540   -7.2148 C.ar    1  UNL1        0.0869
     21 O          16.3409   70.9361   -6.9941 O.2     1  UNL1       -0.2464
     22 O          18.8893   70.2853  -10.5710 O.2     1  UNL1       -0.2670
     23 H          16.7710   70.5978   -9.3702 H       1  UNL1        0.1734
     24 O          21.4280   71.9931    0.4672 O.3     1  UNL1       -0.2703
     25 P          22.1405   73.4328    0.5803 P.3     1  UNL1        0.2208
     26 O          23.3648   73.5085   -0.4632 O.3     1  UNL1       -0.4371
     27 O          21.1596   74.4949    0.2669 O.2     1  UNL1       -0.5170
     28 O          22.6968   73.6400    2.0770 O.3     1  UNL1       -0.2865
     29 C          22.6848   74.9034    2.7440 C.3     1  UNL1        0.2611
     30 C          24.0552   75.1615    3.3750 C.3     1  UNL1        0.1582
     31 C          24.3348   74.0831    4.4264 C.3     1  UNL1        0.1625
     32 C          23.2077   74.0914    5.4628 C.3     1  UNL1        0.1686
     33 C          21.8696   73.8744    4.7511 C.3     1  UNL1        0.1760
     34 O          25.5798   74.3581    5.0726 O.3     1  UNL1       -0.3801
     35 O          23.1907   75.3493    6.1399 O.3     1  UNL1       -0.3794
     36 O          21.6855   74.8928    3.7656 O.3     1  UNL1       -0.3263
     37 H          25.8209   73.7131    5.7516 H       1  UNL1        0.2105
     38 H          22.4991   75.4256    6.8122 H       1  UNL1        0.2105
     39 C          25.5770   76.2574    1.8191 C.2     1  UNL1        0.2231
     40 C          26.6394   76.2088    0.7526 C.3     1  UNL1        0.0946
     41 N          25.0885   75.1134    2.3375 N.am    1  UNL1       -0.2994
     42 O          25.1602   77.3270    2.2121 O.2     1  UNL1       -0.2751
     43 H          25.4207   74.2580    2.0228 H       1  UNL1        0.1496
     44 C          20.7325   73.9409    5.7723 C.3     1  UNL1        0.1693
     45 O          19.5856   73.2638    5.2539 O.3     1  UNL1       -0.3794
     46 H          18.8241   73.2661    5.8498 H       1  UNL1        0.2105
@<TRIPOS>BOND
     1    29    30    1
     2    30    41    1
     3    30    31    1
     4    31    34    1
     5    31    32    1
     6    32    35    1
     7    32    33    1
     8    33    36    1
     9    33    44    1
    10    39    40    1
    11    39    42    2
    12    39    41   am
    13    41    43    1
    14    29    28    1
    15    34    37    1
    16    35    38    1
    17    29    36    1
    18    44    45    1
    19    45    46    1
    20    15     6    1
    21    15    16   ar
    22    16    21    2
    23    16    17   ar
    24    17    23    1
    25    17    18   ar
    26    18    19   ar
    27    19    20   ar
    28    15    20   ar
    29    18    22    2
    30     6     7    1
    31     6    11    1
    32     7     9    1
    33     7     8    1
    34     8    13    1
    35     9    10    1
    36     9    12    1
    37    10     5    1
    38    10    11    1
    39    12    14    1
    40     5     4    1
    41     4     1    1
    42     1     2    1
    43     1    24    1
    44     1     3    2
    45    24    25    1
    46    28    25    1
    47    25    26    1
    48    25    27    2
@<TRIPOS>MOLECULE
UD2
 46 48 0 0 0
SMALL
GASTEIGER

@<TRIPOS>ATOM
      1 P          23.9079   75.0610   -4.4386 P.3     1  UNL1        0.2189
      2 O          24.3467   73.5638   -4.0419 O.3     1  UNL1       -0.4371
      3 O          25.1149   75.8817   -4.6804 O.2     1  UNL1       -0.5170
      4 O          23.0097   75.0206   -5.7747 O.3     1  UNL1       -0.3112
      5 C          21.6058   75.2862   -5.7757 C.3     1  UNL1        0.1811
      6 C          19.3172   73.6837   -8.0409 C.3     1  UNL1        0.2383
      7 C          18.6605   75.0519   -7.7264 C.3     1  UNL1        0.1895
      8 O          17.8927   75.5167   -8.8383 O.3     1  UNL1       -0.3779
      9 C          19.8936   75.9578   -7.4893 C.3     1  UNL1        0.1713
     10 C          21.0283   74.9699   -7.1575 C.3     1  UNL1        0.1764
     11 O          20.4609   73.6502   -7.1598 O.3     1  UNL1       -0.3308
     12 O          20.2037   76.6977   -8.6713 O.3     1  UNL1       -0.3794
     13 H          17.4615   76.3692   -8.6899 H       1  UNL1        0.2106
     14 H          19.4988   77.2930   -8.9598 H       1  UNL1        0.2105
     15 N          18.3966   72.5869   -7.7337 N.ar    1  UNL1       -0.2551
     16 C          18.3370   71.5188   -8.5488 C.ar    1  UNL1        0.3323
     17 N          17.5000   70.4964   -8.2911 N.ar    1  UNL1       -0.2743
     18 C          16.7047   70.5282   -7.2025 C.ar    1  UNL1        0.2626
     19 C          16.7578   71.6459   -6.3353 C.ar    1  UNL1        0.0795
     20 C          17.6093   72.6548   -6.6158 C.ar    1  UNL1        0.0869
     21 O          19.0485   71.4764   -9.5339 O.2     1  UNL1       -0.2464
     22 O          15.9470   69.6033   -6.9679 O.2     1  UNL1       -0.2670
     23 H          17.4688   69.7344   -8.8899 H       1  UNL1        0.1734
     24 O          23.0519   75.7059   -3.2366 O.3     1  UNL1       -0.2703
     25 P          22.4039   75.1179   -1.8849 P.3     1  UNL1        0.2208
     26 O          23.4772   75.2175   -0.6883 O.3     1  UNL1       -0.4371
     27 O          21.1997   75.9018   -1.5332 O.2     1  UNL1       -0.5170
     28 O          21.9945   73.5773   -2.1122 O.3     1  UNL1       -0.2865
     29 C          20.8461   72.9797   -1.5078 C.3     1  UNL1        0.2611
     30 C          21.2934   71.9453   -0.4721 C.3     1  UNL1        0.1582
     31 C          22.0782   70.8352   -1.1780 C.3     1  UNL1        0.1625
     32 C          21.2002   70.2199   -2.2711 C.3     1  UNL1        0.1686
     33 C          20.7564   71.3212   -3.2377 C.3     1  UNL1        0.1760
     34 O          22.4368   69.8274   -0.2298 O.3     1  UNL1       -0.3801
     35 O          20.0511   69.6142   -1.6763 O.3     1  UNL1       -0.3794
     36 O          20.0596   72.3366   -2.5129 O.3     1  UNL1       -0.3263
     37 H          22.9379   69.0921   -0.6086 H       1  UNL1        0.2105
     38 H          19.4483   69.2040   -2.3122 H       1  UNL1        0.2105
     39 C          22.0016   72.2958    1.8329 C.2     1  UNL1        0.2231
     40 C          22.8812   72.9591    2.8600 C.3     1  UNL1        0.0946
     41 N          22.1492   72.5911    0.5264 N.am    1  UNL1       -0.2994
     42 O          21.1594   71.4950    2.1816 O.2     1  UNL1       -0.2751
     43 H          22.8218   73.2320    0.2473 H       1  UNL1        0.1496
     44 C          19.8299   70.7249   -4.2991 C.3     1  UNL1        0.1693
     45 O          19.9908   69.3052   -4.3296 O.3     1  UNL1       -0.3794
     46 H          19.4326   68.8594   -4.9813 H       1  UNL1        0.2105
@<TRIPOS>BOND
     1    29    30    1
     2    30    41    1
     3    30    31    1
     4    31    34    1
     5    31    32    1
     6    32    35    1
     7    32    33    1
     8    33    36    1
     9    33    44    1
    10    39    40    1
    11    39    42    2
    12    39    41   am
    13    41    43    1
    14    29    28    1
    15    34    37    1
    16    35    38    1
    17    29    36    1
    18    44    45    1
    19    45    46    1
    20    15     6    1
    21    15    16   ar
    22    16    21    2
    23    16    17   ar
    24    17    23    1
    25    17    18   ar
    26    18    19   ar
    27    19    20   ar
    28    15    20   ar
    29    18    22    2
    30     6     7    1
    31     6    11    1
    32     7     9    1
    33     7     8    1
    34     8    13    1
    35     9    10    1
    36     9    12    1
    37    10     5    1
    38    10    11    1
    39    12    14    1
    40     5     4    1
    41     4     1    1
    42     1     2    1
    43     1    24    1
    44     1     3    2
    45    24    25    1
    46    28    25    1
    47    25    26    1
    48    25    27    2
@<TRIPOS>MOLECULE
UD2
 46 48 0 0 0
SMALL
GASTEIGER

@<TRIPOS>ATOM
      1 P          22.8671   71.2777   -2.5925 P.3     1  UNL1        0.2189
      2 O          23.5729   72.6881   -2.2703 O.3     1  UNL1       -0.4371
      3 O          23.8392   70.3780   -3.2516 O.2     1  UNL1       -0.5170
      4 O          22.3593   70.6059   -1.2197 O.3     1  UNL1       -0.3112
      5 C          22.6007   71.1842    0.0643 C.3     1  UNL1        0.1811
      6 C          20.6131   72.9680    2.4734 C.3     1  UNL1        0.2383
      7 C          21.0756   74.0540    1.4690 C.3     1  UNL1        0.1895
      8 O          20.1039   75.0961    1.3613 O.3     1  UNL1       -0.3779
      9 C          21.1757   73.2534    0.1475 C.3     1  UNL1        0.1713
     10 C          21.3016   71.7874    0.6041 C.3     1  UNL1        0.1764
     11 O          21.3222   71.7868    2.0404 O.3     1  UNL1       -0.3308
     12 O          19.9949   73.4341   -0.6359 O.3     1  UNL1       -0.3794
     13 H          20.3481   75.7997    0.7450 H       1  UNL1        0.2106
     14 H          19.8344   74.3497   -0.9014 H       1  UNL1        0.2105
     15 N          20.9991   73.3304    3.8390 N.ar    1  UNL1       -0.2551
     16 C          22.2902   73.2568    4.2083 C.ar    1  UNL1        0.3323
     17 N          22.6734   73.5835    5.4567 N.ar    1  UNL1       -0.2743
     18 C          21.7612   73.9941    6.3611 C.ar    1  UNL1        0.2626
     19 C          20.3988   74.0772    5.9856 C.ar    1  UNL1        0.0795
     20 C          20.0435   73.7475    4.7260 C.ar    1  UNL1        0.0869
     21 O          23.1236   72.8884    3.4032 O.2     1  UNL1       -0.2464
     22 O          22.1068   74.2905    7.4912 O.2     1  UNL1       -0.2670
     23 H          23.6083   73.5236    5.7068 H       1  UNL1        0.1734
     24 O          21.6094   71.5174   -3.5692 O.3     1  UNL1       -0.2703
     25 P          21.2737   72.5981   -4.7148 P.3     1  UNL1        0.2208
     26 O          21.1073   74.0539   -4.0463 O.3     1  UNL1       -0.4371
     27 O          22.3765   72.6315   -5.7002 O.2     1  UNL1       -0.5170
     28 O          19.9041   72.1874   -5.4551 O.3     1  UNL1       -0.2865
     29 C          19.6078   70.8489   -5.8575 C.3     1  UNL1        0.2611
     30 C          18.2751   70.8244   -6.6099 C.3     1  UNL1        0.1582
     31 C          17.1584   71.2848   -5.6680 C.3     1  UNL1        0.1625
     32 C          17.1435   70.3820   -4.4315 C.3     1  UNL1        0.1686
     33 C          18.5201   70.4236   -3.7629 C.3     1  UNL1        0.1760
     34 O          15.9000   71.1950   -6.3401 O.3     1  UNL1       -0.3801
     35 O          16.8422   69.0413   -4.8226 O.3     1  UNL1       -0.3794
     36 O          19.5164   70.0136   -4.7016 O.3     1  UNL1       -0.3263
     37 H          15.1462   71.4726   -5.8015 H       1  UNL1        0.2105
     38 H          16.8169   68.4127   -4.0876 H       1  UNL1        0.2105
     39 C          19.0771   71.3841   -8.8418 C.2     1  UNL1        0.2231
     40 C          19.1513   72.3110  -10.0267 C.3     1  UNL1        0.0946
     41 N          18.3470   71.7266   -7.7621 N.am    1  UNL1       -0.2994
     42 O          19.6749   70.3284   -8.8589 O.2     1  UNL1       -0.2751
     43 H          17.8698   72.5710   -7.7476 H       1  UNL1        0.1496
     44 C          18.5317   69.4778   -2.5605 C.3     1  UNL1        0.1693
     45 O          19.7432   69.6571   -1.8240 O.3     1  UNL1       -0.3794
     46 H          19.8191   69.0880   -1.0460 H       1  UNL1        0.2105
@<TRIPOS>BOND
     1    29    30    1
     2    30    41    1
     3    30    31    1
     4    31    34    1
     5    31    32    1
     6    32    35    1
     7    32    33    1
     8    33    36    1
     9    33    44    1
    10    39    40    1
    11    39    42    2
    12    39    41   am
    13    41    43    1
    14    29    28    1
    15    34    37    1
    16    35    38    1
    17    29    36    1
    18    44    45    1
    19    45    46    1
    20    15     6    1
    21    15    16   ar
    22    16    21    2
    23    16    17   ar
    24    17    23    1
    25    17    18   ar
    26    18    19   ar
    27    19    20   ar
    28    15    20   ar
    29    18    22    2
    30     6     7    1
    31     6    11    1
    32     7     9    1
    33     7     8    1
    34     8    13    1
    35     9    10    1
    36     9    12    1
    37    10     5    1
    38    10    11    1
    39    12    14    1
    40     5     4    1
    41     4     1    1
    42     1     2    1
    43     1    24    1
    44     1     3    2
    45    24    25    1
    46    28    25    1
    47    25    26    1
    48    25    27    2
@<TRIPOS>MOLECULE
UD2
 46 48 0 0 0
SMALL
GASTEIGER

@<TRIPOS>ATOM
      1 P          21.9085   70.7573   -2.8293 P.3     1  UNL1        0.2189
      2 O          23.5039   70.6696   -3.0251 O.3     1  UNL1       -0.4371
      3 O          21.3590   69.3973   -2.6363 O.2     1  UNL1       -0.5170
      4 O          21.5753   71.6592   -1.5372 O.3     1  UNL1       -0.3112
      5 C          22.5807   72.3419   -0.7859 C.3     1  UNL1        0.1811
      6 C          22.6693   74.1012    2.3500 C.3     1  UNL1        0.2383
      7 C          22.2116   75.1644    1.3194 C.3     1  UNL1        0.1895
      8 O          21.3505   76.1281    1.9290 O.3     1  UNL1       -0.3779
      9 C          21.4380   74.3064    0.2885 C.3     1  UNL1        0.1713
     10 C          21.9711   72.8783    0.5117 C.3     1  UNL1        0.1764
     11 O          22.9800   72.9526    1.5315 O.3     1  UNL1       -0.3308
     12 O          20.0340   74.3626    0.5460 O.3     1  UNL1       -0.3794
     13 H          21.0380   76.8149    1.3246 H       1  UNL1        0.2106
     14 H          19.6560   75.2497    0.4776 H       1  UNL1        0.2105
     15 N          23.8596   74.5594    3.0699 N.ar    1  UNL1       -0.2551
     16 C          24.0295   74.2207    4.3603 C.ar    1  UNL1        0.3323
     17 N          25.1138   74.6279    5.0465 N.ar    1  UNL1       -0.2743
     18 C          26.0529   75.3856    4.4444 C.ar    1  UNL1        0.2626
     19 C          25.8874   75.7486    3.0861 C.ar    1  UNL1        0.0795
     20 C          24.7927   75.3228    2.4213 C.ar    1  UNL1        0.0869
     21 O          23.1909   73.5378    4.9159 O.2     1  UNL1       -0.2464
     22 O          27.0349   75.7545    5.0642 O.2     1  UNL1       -0.2670
     23 H          25.2201   74.3757    5.9766 H       1  UNL1        0.1734
     24 O          21.2431   71.4250   -4.1349 O.3     1  UNL1       -0.2703
     25 P          21.5124   72.7837   -4.9561 P.3     1  UNL1        0.2208
     26 O          21.2567   74.0506   -3.9951 O.3     1  UNL1       -0.4371
     27 O          22.9123   72.8025   -5.4339 O.2     1  UNL1       -0.5170
     28 O          20.5135   72.8557   -6.2169 O.3     1  UNL1       -0.2865
     29 C          20.0273   71.6942   -6.8921 C.3     1  UNL1        0.2611
     30 C          19.8952   71.9902   -8.3880 C.3     1  UNL1        0.1582
     31 C          18.8688   73.1093   -8.5895 C.3     1  UNL1        0.1625
     32 C          17.5379   72.6858   -7.9619 C.3     1  UNL1        0.1686
     33 C          17.7610   72.3629   -6.4820 C.3     1  UNL1        0.1760
     34 O          18.6848   73.3419   -9.9878 O.3     1  UNL1       -0.3801
     35 O          17.0399   71.5276   -8.6341 O.3     1  UNL1       -0.3794
     36 O          18.7485   71.3369   -6.3635 O.3     1  UNL1       -0.3263
     37 H          18.0469   74.0402  -10.1894 H       1  UNL1        0.2105
     38 H          16.1973   71.2025   -8.2872 H       1  UNL1        0.2105
     39 C          21.5259   73.7205   -8.9217 C.2     1  UNL1        0.2231
     40 C          22.8599   74.1576   -9.4674 C.3     1  UNL1        0.0946
     41 N          21.1929   72.4146   -8.9192 N.am    1  UNL1       -0.2994
     42 O          20.7500   74.5443   -8.4839 O.2     1  UNL1       -0.2751
     43 H          21.8125   71.7558   -9.2701 H       1  UNL1        0.1496
     44 C          16.4479   71.8815   -5.8618 C.3     1  UNL1        0.1693
     45 O          16.3099   70.4743   -6.0694 O.3     1  UNL1       -0.3794
     46 H          15.4980   70.0997   -5.7014 H       1  UNL1        0.2105
@<TRIPOS>BOND
     1    29    30    1
     2    30    41    1
     3    30    31    1
     4    31    34    1
     5    31    32    1
     6    32    35    1
     7    32    33    1
     8    33    36    1
     9    33    44    1
    10    39    40    1
    11    39    42    2
    12    39    41   am
    13    41    43    1
    14    29    28    1
    15    34    37    1
    16    35    38    1
    17    29    36    1
    18    44    45    1
    19    45    46    1
    20    15     6    1
    21    15    16   ar
    22    16    21    2
    23    16    17   ar
    24    17    23    1
    25    17    18   ar
    26    18    19   ar
    27    19    20   ar
    28    15    20   ar
    29    18    22    2
    30     6     7    1
    31     6    11    1
    32     7     9    1
    33     7     8    1
    34     8    13    1
    35     9    10    1
    36     9    12    1
    37    10     5    1
    38    10    11    1
    39    12    14    1
    40     5     4    1
    41     4     1    1
    42     1     2    1
    43     1    24    1
    44     1     3    2
    45    24    25    1
    46    28    25    1
    47    25    26    1
    48    25    27    2
@<TRIPOS>MOLECULE
UD2
 46 48 0 0 0
SMALL
GASTEIGER

@<TRIPOS>ATOM
      1 P          19.2415   70.1528   -3.0015 P.3     1  UNL1        0.2189
      2 O          17.6530   69.9395   -2.8511 O.3     1  UNL1       -0.4371
      3 O          19.7835   69.1667   -3.9622 O.2     1  UNL1       -0.5170
      4 O          19.5343   71.6425   -3.5388 O.3     1  UNL1       -0.3112
      5 C          18.8544   72.7961   -3.0404 C.3     1  UNL1        0.1811
      6 C          17.9259   73.2773   -6.4817 C.3     1  UNL1        0.2383
      7 C          16.6538   72.6979   -5.8122 C.3     1  UNL1        0.1895
      8 O          15.4732   73.1873   -6.4512 O.3     1  UNL1       -0.3779
      9 C          16.7679   73.2456   -4.3684 C.3     1  UNL1        0.1713
     10 C          18.2626   73.5845   -4.2113 C.3     1  UNL1        0.1764
     11 O          18.9172   73.2092   -5.4337 O.3     1  UNL1       -0.3308
     12 O          15.9696   74.4204   -4.2160 O.3     1  UNL1       -0.3794
     13 H          14.6509   72.8527   -6.0683 H       1  UNL1        0.2106
     14 H          15.0249   74.2767   -4.3626 H       1  UNL1        0.2105
     15 N          18.3267   72.4552   -7.6257 N.ar    1  UNL1       -0.2551
     16 C          18.4021   73.0078   -8.8495 C.ar    1  UNL1        0.3323
     17 N          18.7675   72.2760   -9.9187 N.ar    1  UNL1       -0.2743
     18 C          19.0671   70.9689   -9.7763 C.ar    1  UNL1        0.2626
     19 C          18.9929   70.3746   -8.4936 C.ar    1  UNL1        0.0795
     20 C          18.6279   71.1330   -7.4386 C.ar    1  UNL1        0.0869
     21 O          18.1349   74.1853   -8.9927 O.2     1  UNL1       -0.2464
     22 O          19.3983   70.3056  -10.7431 O.2     1  UNL1       -0.2670
     23 H          18.8155   72.6899  -10.7943 H       1  UNL1        0.1734
     24 O          19.9484   69.9512   -1.5687 O.3     1  UNL1       -0.2703
     25 P          21.3783   70.3711   -0.9587 P.3     1  UNL1        0.2208
     26 O          21.6483   69.5412    0.3949 O.3     1  UNL1       -0.4371
     27 O          22.4420   70.0699   -1.9417 O.2     1  UNL1       -0.5170
     28 O          21.3800   71.9476   -0.6316 O.3     1  UNL1       -0.2865
     29 C          22.5750   72.6891   -0.3796 C.3     1  UNL1        0.2611
     30 C          22.2305   73.9698    0.3844 C.3     1  UNL1        0.1582
     31 C          21.3166   74.8412   -0.4827 C.3     1  UNL1        0.1625
     32 C          22.0167   75.1297   -1.8135 C.3     1  UNL1        0.1686
     33 C          22.3695   73.8039   -2.4930 C.3     1  UNL1        0.1760
     34 O          21.0493   76.0721    0.1930 O.3     1  UNL1       -0.3801
     35 O          23.2108   75.8763   -1.5730 O.3     1  UNL1       -0.3794
     36 O          23.1951   73.0288   -1.6216 O.3     1  UNL1       -0.3263
     37 H          20.4744   76.6739   -0.2995 H       1  UNL1        0.2105
     38 H          23.7072   76.0945   -2.3743 H       1  UNL1        0.2105
     39 C          22.2065   73.6630    2.8016 C.2     1  UNL1        0.2231
     40 C          21.4983   73.3097    4.0831 C.3     1  UNL1        0.0946
     41 N          21.5409   73.6257    1.6304 N.am    1  UNL1       -0.2994
     42 O          23.3771   73.9814    2.8233 O.2     1  UNL1       -0.2751
     43 H          20.6053   73.3703    1.6126 H       1  UNL1        0.1496
     44 C          23.1225   74.0830   -3.7951 C.3     1  UNL1        0.1693
     45 O          23.8995   72.9378   -4.1517 O.3     1  UNL1       -0.3794
     46 H          24.4048   73.0437   -4.9693 H       1  UNL1        0.2105
@<TRIPOS>BOND
     1    29    30    1
     2    30    41    1
     3    30    31    1
     4    31    34    1
     5    31    32    1
     6    32    35    1
     7    32    33    1
     8    33    36    1
     9    33    44    1
    10    39    40    1
    11    39    42    2
    12    39    41   am
    13    41    43    1
    14    29    28    1
    15    34    37    1
    16    35    38    1
    17    29    36    1
    18    44    45    1
    19    45    46    1
    20    15     6    1
    21    15    16   ar
    22    16    21    2
    23    16    17   ar
    24    17    23    1
    25    17    18   ar
    26    18    19   ar
    27    19    20   ar
    28    15    20   ar
    29    18    22    2
    30     6     7    1
    31     6    11    1
    32     7     9    1
    33     7     8    1
    34     8    13    1
    35     9    10    1
    36     9    12    1
    37    10     5    1
    38    10    11    1
    39    12    14    1
    40     5     4    1
    41     4     1    1
    42     1     2    1
    43     1    24    1
    44     1     3    2
    45    24    25    1
    46    28    25    1
    47    25    26    1
    48    25    27    2
@<TRIPOS>MOLECULE
UD2
 46 48 0 0 0
SMALL
GASTEIGER

@<TRIPOS>ATOM
      1 P          22.2408   70.4318   -0.3488 P.3     1  UNL1        0.2189
      2 O          21.4341   70.8467    0.9810 O.3     1  UNL1       -0.4371
      3 O          23.3385   69.5062    0.0079 O.2     1  UNL1       -0.5170
      4 O          21.2391   69.7047   -1.3791 O.3     1  UNL1       -0.3112
      5 C          21.2332   69.9784   -2.7814 C.3     1  UNL1        0.1811
      6 C          18.6043   70.7832   -5.1005 C.3     1  UNL1        0.2383
      7 C          18.1886   69.4166   -4.4990 C.3     1  UNL1        0.1895
      8 O          16.7659   69.2915   -4.4523 O.3     1  UNL1       -0.3779
      9 C          18.7834   69.4949   -3.0716 C.3     1  UNL1        0.1713
     10 C          19.8796   70.5722   -3.1791 C.3     1  UNL1        0.1764
     11 O          19.9196   71.0068   -4.5477 O.3     1  UNL1       -0.3308
     12 O          17.7810   69.8925   -2.1346 O.3     1  UNL1       -0.3794
     13 H          16.4565   68.4528   -4.0842 H       1  UNL1        0.2106
     14 H          17.0367   69.2791   -2.0698 H       1  UNL1        0.2105
     15 N          18.6646   70.7067   -6.5618 N.ar    1  UNL1       -0.2551
     16 C          17.5373   70.8397   -7.2832 C.ar    1  UNL1        0.3323
     17 N          17.5631   70.7735   -8.6275 N.ar    1  UNL1       -0.2743
     18 C          18.7290   70.5732   -9.2749 C.ar    1  UNL1        0.2626
     19 C          19.9235   70.4325   -8.5281 C.ar    1  UNL1        0.0795
     20 C          19.8688   70.5074   -7.1817 C.ar    1  UNL1        0.0869
     21 O          16.4789   71.0209   -6.7128 O.2     1  UNL1       -0.2464
     22 O          18.7538   70.5135  -10.4915 O.2     1  UNL1       -0.2670
     23 H          16.7409   70.8702   -9.1322 H       1  UNL1        0.1734
     24 O          22.8540   71.7514   -1.0387 O.3     1  UNL1       -0.2703
     25 P          22.4580   73.3121   -1.0147 P.3     1  UNL1        0.2208
     26 O          20.9864   73.4822   -0.3829 O.3     1  UNL1       -0.4371
     27 O          23.4364   74.0570   -0.1923 O.2     1  UNL1       -0.5170
     28 O          22.4678   73.8913   -2.5170 O.3     1  UNL1       -0.2865
     29 C          23.5739   73.7291   -3.4067 C.3     1  UNL1        0.2611
     30 C          24.2682   75.0779   -3.6102 C.3     1  UNL1        0.1582
     31 C          23.2856   76.0549   -4.2630 C.3     1  UNL1        0.1625
     32 C          22.7851   75.4552   -5.5799 C.3     1  UNL1        0.1686
     33 C          22.1477   74.0916   -5.3004 C.3     1  UNL1        0.1760
     34 O          23.9477   77.2947   -4.5239 O.3     1  UNL1       -0.3801
     35 O          23.8835   75.2943   -6.4794 O.3     1  UNL1       -0.3794
     36 O          23.1047   73.2414   -4.6654 O.3     1  UNL1       -0.3263
     37 H          23.3831   77.9622   -4.9373 H       1  UNL1        0.2105
     38 H          23.6391   74.9173   -7.3362 H       1  UNL1        0.2105
     39 C          26.0054   75.6232   -1.9907 C.2     1  UNL1        0.2231
     40 C          26.4471   76.1682   -0.6579 C.3     1  UNL1        0.0946
     41 N          24.6971   75.6080   -2.3134 N.am    1  UNL1       -0.2994
     42 O          26.8277   75.1973   -2.7748 O.2     1  UNL1       -0.2751
     43 H          24.0393   75.9475   -1.6865 H       1  UNL1        0.1496
     44 C          21.6986   73.4590   -6.6189 C.3     1  UNL1        0.1693
     45 O          22.7969   72.7642   -7.2133 O.3     1  UNL1       -0.3794
     46 H          22.5842   72.3374   -8.0545 H       1  UNL1        0.2105
@<TRIPOS>BOND
     1    29    30    1
     2    30    41    1
     3    30    31    1
     4    31    34    1
     5    31    32    1
     6    32    35    1
     7    32    33    1
     8    33    36    1
     9    33    44    1
    10    39    40    1
    11    39    42    2
    12    39    41   am
    13    41    43    1
    14    29    28    1
    15    34    37    1
    16    35    38    1
    17    29    36    1
    18    44    45    1
    19    45    46    1
    20    15     6    1
    21    15    16   ar
    22    16    21    2
    23    16    17   ar
    24    17    23    1
    25    17    18   ar
    26    18    19   ar
    27    19    20   ar
    28    15    20   ar
    29    18    22    2
    30     6     7    1
    31     6    11    1
    32     7     9    1
    33     7     8    1
    34     8    13    1
    35     9    10    1
    36     9    12    1
    37    10     5    1
    38    10    11    1
    39    12    14    1
    40     5     4    1
    41     4     1    1
    42     1     2    1
    43     1    24    1
    44     1     3    2
    45    24    25    1
    46    28    25    1
    47    25    26    1
    48    25    27    2
@<TRIPOS>MOLECULE
UD2
 46 48 0 0 0
SMALL
GASTEIGER

@<TRIPOS>ATOM
      1 P          22.6747   71.6299   -2.9578 P.3     1  UNL1        0.2189
      2 O          23.6348   70.3749   -3.2651 O.3     1  UNL1       -0.4371
      3 O          23.1964   72.8311   -3.6462 O.2     1  UNL1       -0.5170
      4 O          21.1880   71.3105   -3.4881 O.3     1  UNL1       -0.3112
      5 C          20.6931   71.7801   -4.7435 C.3     1  UNL1        0.1811
      6 C          17.4332   72.2036   -6.2031 C.3     1  UNL1        0.2383
      7 C          17.7799   70.7133   -6.4496 C.3     1  UNL1        0.1895
      8 O          16.5982   69.9100   -6.4625 O.3     1  UNL1       -0.3779
      9 C          18.6627   70.3774   -5.2227 C.3     1  UNL1        0.1713
     10 C          19.1627   71.7495   -4.7318 C.3     1  UNL1        0.1764
     11 O          18.6471   72.7408   -5.6345 O.3     1  UNL1       -0.3308
     12 O          17.8860   69.7359   -4.2098 O.3     1  UNL1       -0.3794
     13 H          16.7632   68.9696   -6.6140 H       1  UNL1        0.2106
     14 H          17.4972   68.8947   -4.4849 H       1  UNL1        0.2105
     15 N          17.1133   72.8744   -7.4651 N.ar    1  UNL1       -0.2551
     16 C          18.0504   72.9704   -8.4250 C.ar    1  UNL1        0.3323
     17 N          17.7842   73.5816   -9.5945 N.ar    1  UNL1       -0.2743
     18 C          16.5641   74.1086   -9.8226 C.ar    1  UNL1        0.2626
     19 C          15.5677   74.0139   -8.8213 C.ar    1  UNL1        0.0795
     20 C          15.8610   73.3919   -7.6600 C.ar    1  UNL1        0.0869
     21 O          19.1549   72.4995   -8.2332 O.2     1  UNL1       -0.2464
     22 O          16.3217   74.6617  -10.8808 O.2     1  UNL1       -0.2670
     23 H          18.4718   73.6431  -10.2754 H       1  UNL1        0.1734
     24 O          22.6316   71.8970   -1.3703 O.3     1  UNL1       -0.2703
     25 P          22.3849   70.9587   -0.0851 P.3     1  UNL1        0.2208
     26 O          20.9525   70.2345   -0.2172 O.3     1  UNL1       -0.4371
     27 O          23.4497   69.9346   -0.0100 O.2     1  UNL1       -0.5170
     28 O          22.4105   71.8592    1.2495 O.3     1  UNL1       -0.2865
     29 C          21.2250   72.3060    1.9099 C.3     1  UNL1        0.2611
     30 C          20.8533   73.7020    1.4041 C.3     1  UNL1        0.1582
     31 C          21.9787   74.6797    1.7565 C.3     1  UNL1        0.1625
     32 C          22.2084   74.6528    3.2701 C.3     1  UNL1        0.1686
     33 C          22.5279   73.2198    3.7040 C.3     1  UNL1        0.1760
     34 O          21.6076   75.9998    1.3531 O.3     1  UNL1       -0.3801
     35 O          21.0298   75.1037    3.9401 O.3     1  UNL1       -0.3794
     36 O          21.4558   72.3570    3.3193 O.3     1  UNL1       -0.3263
     37 H          22.2759   76.6719    1.5455 H       1  UNL1        0.2105
     38 H          21.1038   75.1120    4.9047 H       1  UNL1        0.2105
     39 C          19.5489   74.1559   -0.6034 C.2     1  UNL1        0.2231
     40 C          19.3647   74.1177   -2.0978 C.3     1  UNL1        0.0946
     41 N          20.6748   73.6643   -0.0496 N.am    1  UNL1       -0.2994
     42 O          18.6833   74.6295    0.1027 O.2     1  UNL1       -0.2751
     43 H          21.3667   73.2847   -0.6137 H       1  UNL1        0.1496
     44 C          22.7001   73.1737    5.2234 C.3     1  UNL1        0.1693
     45 O          23.3705   74.3564    5.6637 O.3     1  UNL1       -0.3794
     46 H          23.5140   74.3953    6.6192 H       1  UNL1        0.2105
@<TRIPOS>BOND
     1    29    30    1
     2    30    41    1
     3    30    31    1
     4    31    34    1
     5    31    32    1
     6    32    35    1
     7    32    33    1
     8    33    36    1
     9    33    44    1
    10    39    40    1
    11    39    42    2
    12    39    41   am
    13    41    43    1
    14    29    28    1
    15    34    37    1
    16    35    38    1
    17    29    36    1
    18    44    45    1
    19    45    46    1
    20    15     6    1
    21    15    16   ar
    22    16    21    2
    23    16    17   ar
    24    17    23    1
    25    17    18   ar
    26    18    19   ar
    27    19    20   ar
    28    15    20   ar
    29    18    22    2
    30     6     7    1
    31     6    11    1
    32     7     9    1
    33     7     8    1
    34     8    13    1
    35     9    10    1
    36     9    12    1
    37    10     5    1
    38    10    11    1
    39    12    14    1
    40     5     4    1
    41     4     1    1
    42     1     2    1
    43     1    24    1
    44     1     3    2
    45    24    25    1
    46    28    25    1
    47    25    26    1
    48    25    27    2
@<TRIPOS>MOLECULE
UD2
 46 48 0 0 0
SMALL
GASTEIGER

@<TRIPOS>ATOM
      1 P          21.2442   74.9870   -3.1816 P.3     1  UNL1        0.2189
      2 O          20.6917   76.4089   -3.6956 O.3     1  UNL1       -0.4371
      3 O          22.7228   74.9831   -3.2349 O.2     1  UNL1       -0.5170
      4 O          20.7612   74.7401   -1.6652 O.3     1  UNL1       -0.3112
      5 C          20.5615   73.4364   -1.1158 C.3     1  UNL1        0.1811
      6 C          22.8537   72.5714    1.5176 C.3     1  UNL1        0.2383
      7 C          22.0876   71.2573    1.2204 C.3     1  UNL1        0.1895
      8 O          22.9140   70.1181    1.4677 O.3     1  UNL1       -0.3779
      9 C          21.7765   71.3965   -0.2900 C.3     1  UNL1        0.1713
     10 C          21.8864   72.9094   -0.5591 C.3     1  UNL1        0.1764
     11 O          22.1779   73.5470    0.6947 O.3     1  UNL1       -0.3308
     12 O          22.7379   70.6789   -1.0656 O.3     1  UNL1       -0.3794
     13 H          22.4790   69.2718    1.2968 H       1  UNL1        0.2106
     14 H          22.7531   69.7279   -0.8927 H       1  UNL1        0.2105
     15 N          22.7417   72.9247    2.9345 N.ar    1  UNL1       -0.2551
     16 C          21.6679   72.5241    3.6383 C.ar    1  UNL1        0.3323
     17 N          21.5387   72.8345    4.9418 N.ar    1  UNL1       -0.2743
     18 C          22.4925   73.5555    5.5655 C.ar    1  UNL1        0.2626
     19 C          23.6286   73.9829    4.8371 C.ar    1  UNL1        0.0795
     20 C          23.7341   73.6537    3.5325 C.ar    1  UNL1        0.0869
     21 O          20.8002   71.8732    3.0889 O.2     1  UNL1       -0.2464
     22 O          22.3770   73.8368    6.7454 O.2     1  UNL1       -0.2670
     23 H          20.7575   72.5388    5.4341 H       1  UNL1        0.1734
     24 O          20.6697   73.8149   -4.1247 O.3     1  UNL1       -0.2703
     25 P          21.2845   72.4442   -4.7044 P.3     1  UNL1        0.2208
     26 O          22.8235   72.6791   -5.1171 O.3     1  UNL1       -0.4371
     27 O          21.2075   71.3914   -3.6680 O.2     1  UNL1       -0.5170
     28 O          20.4452   71.9852   -5.9997 O.3     1  UNL1       -0.2865
     29 C          19.2854   72.6798   -6.4620 C.3     1  UNL1        0.2611
     30 C          18.0283   71.9770   -5.9439 C.3     1  UNL1        0.1582
     31 C          17.9770   70.5558   -6.5132 C.3     1  UNL1        0.1625
     32 C          18.0132   70.6282   -8.0422 C.3     1  UNL1        0.1686
     33 C          19.2713   71.3832   -8.4794 C.3     1  UNL1        0.1760
     34 O          16.7690   69.9171   -6.0937 O.3     1  UNL1       -0.3801
     35 O          16.8540   71.3165   -8.5153 O.3     1  UNL1       -0.3794
     36 O          19.2722   72.6854   -7.8910 O.3     1  UNL1       -0.3263
     37 H          16.6704   69.0113   -6.4180 H       1  UNL1        0.2105
     38 H          16.8111   71.4002   -9.4782 H       1  UNL1        0.2105
     39 C          16.9258   71.9925   -3.7709 C.2     1  UNL1        0.2231
     40 C          16.9668   71.9308   -2.2665 C.3     1  UNL1        0.0946
     41 N          18.0690   71.9172   -4.4806 N.am    1  UNL1       -0.2994
     42 O          15.8632   72.1100   -4.3447 O.2     1  UNL1       -0.2751
     43 H          18.9188   71.8242   -4.0223 H       1  UNL1        0.1496
     44 C          19.2846   71.5119  -10.0038 C.3     1  UNL1        0.1693
     45 O          18.7747   70.3117  -10.5884 O.3     1  UNL1       -0.3794
     46 H          18.7539   70.3224  -11.5551 H       1  UNL1        0.2105
@<TRIPOS>BOND
     1    29    30    1
     2    30    41    1
     3    30    31    1
     4    31    34    1
     5    31    32    1
     6    32    35    1
     7    32    33    1
     8    33    36    1
     9    33    44    1
    10    39    40    1
    11    39    42    2
    12    39    41   am
    13    41    43    1
    14    29    28    1
    15    34    37    1
    16    35    38    1
    17    29    36    1
    18    44    45    1
    19    45    46    1
    20    15     6    1
    21    15    16   ar
    22    16    21    2
    23    16    17   ar
    24    17    23    1
    25    17    18   ar
    26    18    19   ar
    27    19    20   ar
    28    15    20   ar
    29    18    22    2
    30     6     7    1
    31     6    11    1
    32     7     9    1
    33     7     8    1
    34     8    13    1
    35     9    10    1
    36     9    12    1
    37    10     5    1
    38    10    11    1
    39    12    14    1
    40     5     4    1
    41     4     1    1
    42     1     2    1
    43     1    24    1
    44     1     3    2
    45    24    25    1
    46    28    25    1
    47    25    26    1
    48    25    27    2
@<TRIPOS>MOLECULE
UD2
 46 48 0 0 0
SMALL
GASTEIGER

@<TRIPOS>ATOM
      1 P          22.7750   72.1159   -3.3213 P.3     1  UNL1        0.2189
      2 O          23.0796   72.7385   -4.7742 O.3     1  UNL1       -0.4371
      3 O          23.4971   70.8332   -3.1723 O.2     1  UNL1       -0.5170
      4 O          23.2666   73.1439   -2.1833 O.3     1  UNL1       -0.3112
      5 C          22.4142   73.6087   -1.1350 C.3     1  UNL1        0.1811
      6 C          22.7405   73.1788    2.4210 C.3     1  UNL1        0.2383
      7 C          21.2652   72.8131    2.1180 C.3     1  UNL1        0.1895
      8 O          20.7847   71.8292    3.0361 O.3     1  UNL1       -0.3779
      9 C          21.3616   72.2320    0.6860 C.3     1  UNL1        0.1713
     10 C          22.6838   72.8011    0.1370 C.3     1  UNL1        0.1764
     11 O          23.2354   73.6561    1.1510 O.3     1  UNL1       -0.3308
     12 O          21.4103   70.8050    0.7290 O.3     1  UNL1       -0.3794
     13 H          19.8658   71.5679    2.8877 H       1  UNL1        0.2106
     14 H          20.6271   70.3955    1.1205 H       1  UNL1        0.2105
     15 N          22.8127   74.2348    3.4332 N.ar    1  UNL1       -0.2551
     16 C          22.3845   75.4743    3.1348 C.ar    1  UNL1        0.3323
     17 N          22.4393   76.4642    4.0454 N.ar    1  UNL1       -0.2743
     18 C          22.9264   76.2246    5.2799 C.ar    1  UNL1        0.2626
     19 C          23.3797   74.9243    5.6080 C.ar    1  UNL1        0.0795
     20 C          23.3091   73.9499    4.6768 C.ar    1  UNL1        0.0869
     21 O          21.9427   75.7048    2.0257 O.2     1  UNL1       -0.2464
     22 O          22.9761   77.1196    6.1052 O.2     1  UNL1       -0.2670
     23 H          22.1274   77.3525    3.8133 H       1  UNL1        0.1734
     24 O          21.1922   71.8622   -3.1668 O.3     1  UNL1       -0.2703
     25 P          20.2356   70.5891   -3.4054 P.3     1  UNL1        0.2208
     26 O          21.0633   69.2364   -3.1245 O.3     1  UNL1       -0.4371
     27 O          19.0804   70.6601   -2.4841 O.2     1  UNL1       -0.5170
     28 O          19.7098   70.5908   -4.9273 O.3     1  UNL1       -0.2865
     29 C          19.2328   71.7661   -5.5848 C.3     1  UNL1        0.2611
     30 C          17.7105   71.6913   -5.7250 C.3     1  UNL1        0.1582
     31 C          17.3454   70.4883   -6.6001 C.3     1  UNL1        0.1625
     32 C          18.0471   70.6240   -7.9542 C.3     1  UNL1        0.1686
     33 C          19.5568   70.7399   -7.7280 C.3     1  UNL1        0.1760
     34 O          15.9300   70.4533   -6.7969 O.3     1  UNL1       -0.3801
     35 O          17.5726   71.7941   -8.6229 O.3     1  UNL1       -0.3794
     36 O          19.8255   71.8596   -6.8818 O.3     1  UNL1       -0.3263
     37 H          15.6274   69.7147   -7.3428 H       1  UNL1        0.2105
     38 H          17.9760   71.9436   -9.4894 H       1  UNL1        0.2105
     39 C          15.9976   72.2340   -4.0790 C.2     1  UNL1        0.2231
     40 C          15.3736   72.0739   -2.7175 C.3     1  UNL1        0.0946
     41 N          17.1042   71.5352   -4.4004 N.am    1  UNL1       -0.2994
     42 O          15.5041   72.9925   -4.8872 O.2     1  UNL1       -0.2751
     43 H          17.4996   70.9294   -3.7541 H       1  UNL1        0.1496
     44 C          20.2601   70.9358   -9.0724 C.3     1  UNL1        0.1693
     45 O          19.4021   70.4977  -10.1280 O.3     1  UNL1       -0.3794
     46 H          19.7842   70.5928  -11.0112 H       1  UNL1        0.2105
@<TRIPOS>BOND
     1    29    30    1
     2    30    41    1
     3    30    31    1
     4    31    34    1
     5    31    32    1
     6    32    35    1
     7    32    33    1
     8    33    36    1
     9    33    44    1
    10    39    40    1
    11    39    42    2
    12    39    41   am
    13    41    43    1
    14    29    28    1
    15    34    37    1
    16    35    38    1
    17    29    36    1
    18    44    45    1
    19    45    46    1
    20    15     6    1
    21    15    16   ar
    22    16    21    2
    23    16    17   ar
    24    17    23    1
    25    17    18   ar
    26    18    19   ar
    27    19    20   ar
    28    15    20   ar
    29    18    22    2
    30     6     7    1
    31     6    11    1
    32     7     9    1
    33     7     8    1
    34     8    13    1
    35     9    10    1
    36     9    12    1
    37    10     5    1
    38    10    11    1
    39    12    14    1
    40     5     4    1
    41     4     1    1
    42     1     2    1
    43     1    24    1
    44     1     3    2
    45    24    25    1
    46    28    25    1
    47    25    26    1
    48    25    27    2
@<TRIPOS>MOLECULE
UD2
 46 48 0 0 0
SMALL
GASTEIGER

@<TRIPOS>ATOM
      1 P          22.6669   72.4799   -2.4716 P.3     1  UNL1        0.2189
      2 O          23.9802   73.2111   -3.0477 O.3     1  UNL1       -0.4371
      3 O          23.0616   71.2443   -1.7600 O.2     1  UNL1       -0.5170
      4 O          21.9069   73.4675   -1.4514 O.3     1  UNL1       -0.3112
      5 C          22.5815   74.1834   -0.4151 C.3     1  UNL1        0.1811
      6 C          22.5528   73.4434    3.1045 C.3     1  UNL1        0.2383
      7 C          21.1362   73.0520    2.6125 C.3     1  UNL1        0.1895
      8 O          20.6088   71.9712    3.3841 O.3     1  UNL1       -0.3779
      9 C          21.4094   72.6080    1.1545 C.3     1  UNL1        0.1713
     10 C          22.7538   73.2738    0.8038 C.3     1  UNL1        0.1764
     11 O          23.1553   74.0527    1.9421 O.3     1  UNL1       -0.3308
     12 O          21.5202   71.1858    1.0786 O.3     1  UNL1       -0.3794
     13 H          19.7238   71.6904    3.1147 H       1  UNL1        0.2106
     14 H          20.7203   70.7133    1.3457 H       1  UNL1        0.2105
     15 N          22.4689   74.4046    4.2063 N.ar    1  UNL1       -0.2551
     16 C          22.4444   73.9623    5.4762 C.ar    1  UNL1        0.3323
     17 N          22.3674   74.8232    6.5083 N.ar    1  UNL1       -0.2743
     18 C          22.3152   76.1515    6.2817 C.ar    1  UNL1        0.2626
     19 C          22.3412   76.6311    4.9500 C.ar    1  UNL1        0.0795
     20 C          22.4230   75.7456    3.9347 C.ar    1  UNL1        0.0869
     21 O          22.4910   72.7673    5.6954 O.2     1  UNL1       -0.2464
     22 O          22.2459   76.9318    7.2150 O.2     1  UNL1       -0.2670
     23 H          22.3495   74.4874    7.4177 H       1  UNL1        0.1734
     24 O          21.6821   72.1066   -3.6899 O.3     1  UNL1       -0.2703
     25 P          21.3466   72.7940   -5.1069 P.3     1  UNL1        0.2208
     26 O          20.9369   74.3337   -4.8724 O.3     1  UNL1       -0.4371
     27 O          22.5380   72.7290   -5.9814 O.2     1  UNL1       -0.5170
     28 O          20.1240   72.0133   -5.8059 O.3     1  UNL1       -0.2865
     29 C          18.9753   72.6791   -6.3335 C.3     1  UNL1        0.2611
     30 C          17.7083   71.9511   -5.8780 C.3     1  UNL1        0.1582
     31 C          17.7188   70.5261   -6.4397 C.3     1  UNL1        0.1625
     32 C          17.8344   70.5909   -7.9651 C.3     1  UNL1        0.1686
     33 C          19.0969   71.3715   -8.3402 C.3     1  UNL1        0.1760
     34 O          16.5047   69.8626   -6.0805 O.3     1  UNL1       -0.3801
     35 O          16.6869   71.2503   -8.5035 O.3     1  UNL1       -0.3794
     36 O          19.0377   72.6766   -7.7612 O.3     1  UNL1       -0.3263
     37 H          16.4436   68.9531   -6.4035 H       1  UNL1        0.2105
     38 H          16.6933   71.3278   -9.4678 H       1  UNL1        0.2105
     39 C          16.5029   72.0526   -3.7628 C.2     1  UNL1        0.2231
     40 C          16.4654   72.0002   -2.2580 C.3     1  UNL1        0.0946
     41 N          17.6727   71.9002   -4.4142 N.am    1  UNL1       -0.2994
     42 O          15.4795   72.2322   -4.3893 O.2     1  UNL1       -0.2751
     43 H          18.4913   71.7576   -3.9136 H       1  UNL1        0.1496
     44 C          19.1881   71.4922   -9.8626 C.3     1  UNL1        0.1693
     45 O          18.6704   70.3053  -10.4671 O.3     1  UNL1       -0.3794
     46 H          18.6969   70.3118  -11.4337 H       1  UNL1        0.2105
@<TRIPOS>BOND
     1    29    30    1
     2    30    41    1
     3    30    31    1
     4    31    34    1
     5    31    32    1
     6    32    35    1
     7    32    33    1
     8    33    36    1
     9    33    44    1
    10    39    40    1
    11    39    42    2
    12    39    41   am
    13    41    43    1
    14    29    28    1
    15    34    37    1
    16    35    38    1
    17    29    36    1
    18    44    45    1
    19    45    46    1
    20    15     6    1
    21    15    16   ar
    22    16    21    2
    23    16    17   ar
    24    17    23    1
    25    17    18   ar
    26    18    19   ar
    27    19    20   ar
    28    15    20   ar
    29    18    22    2
    30     6     7    1
    31     6    11    1
    32     7     9    1
    33     7     8    1
    34     8    13    1
    35     9    10    1
    36     9    12    1
    37    10     5    1
    38    10    11    1
    39    12    14    1
    40     5     4    1
    41     4     1    1
    42     1     2    1
    43     1    24    1
    44     1     3    2
    45    24    25    1
    46    28    25    1
    47    25    26    1
    48    25    27    2
@<TRIPOS>MOLECULE
UD2
 46 48 0 0 0
SMALL
GASTEIGER

@<TRIPOS>ATOM
      1 P          22.4321   72.8391   -4.5933 P.3     1  UNL1        0.2189
      2 O          23.5744   72.0980   -3.7348 O.3     1  UNL1       -0.4371
      3 O          22.9170   73.0606   -5.9734 O.2     1  UNL1       -0.5170
      4 O          21.1087   71.9220   -4.6301 O.3     1  UNL1       -0.3112
      5 C          20.8622   70.8753   -3.6893 C.3     1  UNL1        0.1811
      6 C          17.3741   71.2105   -4.5003 C.3     1  UNL1        0.2383
      7 C          17.7063   69.7292   -4.8127 C.3     1  UNL1        0.1895
      8 O          16.5651   68.8954   -4.6027 O.3     1  UNL1       -0.3779
      9 C          18.8150   69.4191   -3.7773 C.3     1  UNL1        0.1713
     10 C          19.3634   70.8048   -3.3865 C.3     1  UNL1        0.1764
     11 O          18.6597   71.7804   -4.1716 O.3     1  UNL1       -0.3308
     12 O          18.2623   68.7597   -2.6369 O.3     1  UNL1       -0.3794
     13 H          16.7226   67.9592   -4.7855 H       1  UNL1        0.2106
     14 H          17.8503   67.9080   -2.8354 H       1  UNL1        0.2105
     15 N          16.8024   71.8700   -5.6764 N.ar    1  UNL1       -0.2551
     16 C          17.1164   71.4275   -6.9070 C.ar    1  UNL1        0.3323
     17 N          16.6058   72.0147   -8.0055 N.ar    1  UNL1       -0.2743
     18 C          15.7645   73.0619   -7.8865 C.ar    1  UNL1        0.2626
     19 C          15.4246   73.5375   -6.5971 C.ar    1  UNL1        0.0795
     20 C          15.9479   72.9270   -5.5131 C.ar    1  UNL1        0.0869
     21 O          17.8736   70.4841   -7.0294 O.2     1  UNL1       -0.2464
     22 O          15.3014   73.5940   -8.8800 O.2     1  UNL1       -0.2670
     23 H          16.8436   71.6838   -8.8854 H       1  UNL1        0.1734
     24 O          22.0833   74.2563   -3.9127 O.3     1  UNL1       -0.2703
     25 P          21.2759   74.6923   -2.5895 P.3     1  UNL1        0.2208
     26 O          21.6762   76.2002   -2.1897 O.3     1  UNL1       -0.4371
     27 O          19.8219   74.6220   -2.8529 O.2     1  UNL1       -0.5170
     28 O          21.6513   73.6982   -1.3798 O.3     1  UNL1       -0.2865
     29 C          20.6679   73.0302   -0.5874 C.3     1  UNL1        0.2611
     30 C          20.4171   73.8272    0.6950 C.3     1  UNL1        0.1582
     31 C          21.7119   73.8846    1.5116 C.3     1  UNL1        0.1625
     32 C          22.1854   72.4571    1.7986 C.3     1  UNL1        0.1686
     33 C          22.3681   71.7127    0.4732 C.3     1  UNL1        0.1760
     34 O          21.4682   74.5641    2.7454 O.3     1  UNL1       -0.3801
     35 O          21.2109   71.7818    2.5959 O.3     1  UNL1       -0.3794
     36 O          21.1360   71.7227   -0.2505 O.3     1  UNL1       -0.3263
     37 H          22.2471   74.6379    3.3137 H       1  UNL1        0.2105
     38 H          21.4456   70.8694    2.8160 H       1  UNL1        0.2105
     39 C          18.9910   75.7739    1.0330 C.2     1  UNL1        0.2231
     40 C          18.5560   77.1721    0.6802 C.3     1  UNL1        0.0946
     41 N          19.9945   75.1872    0.3511 N.am    1  UNL1       -0.2994
     42 O          18.4378   75.1749    1.9315 O.2     1  UNL1       -0.2751
     43 H          20.4364   75.6654   -0.3680 H       1  UNL1        0.1496
     44 C          22.7837   70.2673    0.7535 C.3     1  UNL1        0.1693
     45 O          21.6598   69.4037    0.5704 O.3     1  UNL1       -0.3794
     46 H          21.8506   68.4696    0.7317 H       1  UNL1        0.2105
@<TRIPOS>BOND
     1    29    30    1
     2    30    41    1
     3    30    31    1
     4    31    34    1
     5    31    32    1
     6    32    35    1
     7    32    33    1
     8    33    36    1
     9    33    44    1
    10    39    40    1
    11    39    42    2
    12    39    41   am
    13    41    43    1
    14    29    28    1
    15    34    37    1
    16    35    38    1
    17    29    36    1
    18    44    45    1
    19    45    46    1
    20    15     6    1
    21    15    16   ar
    22    16    21    2
    23    16    17   ar
    24    17    23    1
    25    17    18   ar
    26    18    19   ar
    27    19    20   ar
    28    15    20   ar
    29    18    22    2
    30     6     7    1
    31     6    11    1
    32     7     9    1
    33     7     8    1
    34     8    13    1
    35     9    10    1
    36     9    12    1
    37    10     5    1
    38    10    11    1
    39    12    14    1
    40     5     4    1
    41     4     1    1
    42     1     2    1
    43     1    24    1
    44     1     3    2
    45    24    25    1
    46    28    25    1
    47    25    26    1
    48    25    27    2
@<TRIPOS>MOLECULE
UD2
 46 48 0 0 0
SMALL
GASTEIGER

@<TRIPOS>ATOM
      1 P          20.5139   70.0373   -2.4723 P.3     1  UNL1        0.2189
      2 O          20.2300   68.6929   -3.3110 O.3     1  UNL1       -0.4371
      3 O          19.2326   70.7169   -2.1800 O.2     1  UNL1       -0.5170
      4 O          21.2499   69.6619   -1.0899 O.3     1  UNL1       -0.3112
      5 C          22.2340   70.4998   -0.4810 C.3     1  UNL1        0.1811
      6 C          21.4059   73.4155    1.4555 C.3     1  UNL1        0.2383
      7 C          22.8002   73.7291    0.8558 C.3     1  UNL1        0.1895
      8 O          22.9560   75.1319    0.6336 O.3     1  UNL1       -0.3779
      9 C          22.7577   72.9585   -0.4865 C.3     1  UNL1        0.1713
     10 C          21.6552   71.9025   -0.2798 C.3     1  UNL1        0.1764
     11 O          21.1740   72.0442    1.0663 O.3     1  UNL1       -0.3308
     12 O          22.4126   73.8395   -1.5568 O.3     1  UNL1       -0.3794
     13 H          23.8128   75.3784    0.2596 H       1  UNL1        0.2106
     14 H          23.0430   74.5595   -1.6934 H       1  UNL1        0.2105
     15 N          21.4318   73.5407    2.9145 N.ar    1  UNL1       -0.2551
     16 C          21.9416   72.5440    3.6599 C.ar    1  UNL1        0.3323
     17 N          21.9780   72.6321    5.0027 N.ar    1  UNL1       -0.2743
     18 C          21.5019   73.7302    5.6241 C.ar    1  UNL1        0.2626
     19 C          20.9634   74.7874    4.8517 C.ar    1  UNL1        0.0795
     20 C          20.9434   74.6740    3.5070 C.ar    1  UNL1        0.0869
     21 O          22.3746   71.5481    3.1132 O.2     1  UNL1       -0.2464
     22 O          21.5347   73.8113    6.8393 O.2     1  UNL1       -0.2670
     23 H          22.3479   71.9038    5.5252 H       1  UNL1        0.1734
     24 O          21.4578   71.0179   -3.3330 O.3     1  UNL1       -0.2703
     25 P          21.1750   72.1734   -4.4183 P.3     1  UNL1        0.2208
     26 O          20.5206   73.4492   -3.6849 O.3     1  UNL1       -0.4371
     27 O          22.4479   72.5720   -5.0579 O.2     1  UNL1       -0.5170
     28 O          20.1606   71.6198   -5.5395 O.3     1  UNL1       -0.2865
     29 C          19.1698   72.4374   -6.1648 C.3     1  UNL1        0.2611
     30 C          17.7779   71.8824   -5.8530 C.3     1  UNL1        0.1582
     31 C          17.6562   70.4730   -6.4406 C.3     1  UNL1        0.1625
     32 C          17.9335   70.5332   -7.9452 C.3     1  UNL1        0.1686
     33 C          19.3198   71.1403   -8.1764 C.3     1  UNL1        0.1760
     34 O          16.3347   69.9756   -6.2180 O.3     1  UNL1       -0.3801
     35 O          16.9442   71.3444   -8.5812 O.3     1  UNL1       -0.3794
     36 O          19.3758   72.4372   -7.5790 O.3     1  UNL1       -0.3263
     37 H          16.1866   69.0850   -6.5644 H       1  UNL1        0.2105
     38 H          17.0586   71.4275   -9.5382 H       1  UNL1        0.2105
     39 C          16.3912   72.1389   -3.8658 C.2     1  UNL1        0.2231
     40 C          16.1946   72.0808   -2.3736 C.3     1  UNL1        0.0946
     41 N          17.5875   71.8259   -4.4014 N.am    1  UNL1       -0.2994
     42 O          15.4721   72.4677   -4.5865 O.2     1  UNL1       -0.2751
     43 H          18.3228   71.5639   -3.8255 H       1  UNL1        0.1496
     44 C          19.5802   71.2590   -9.6792 C.3     1  UNL1        0.1693
     45 O          18.7375   70.3442  -10.3831 O.3     1  UNL1       -0.3794
     46 H          18.8492   70.3649  -11.3434 H       1  UNL1        0.2105
@<TRIPOS>BOND
     1    29    30    1
     2    30    41    1
     3    30    31    1
     4    31    34    1
     5    31    32    1
     6    32    35    1
     7    32    33    1
     8    33    36    1
     9    33    44    1
    10    39    40    1
    11    39    42    2
    12    39    41   am
    13    41    43    1
    14    29    28    1
    15    34    37    1
    16    35    38    1
    17    29    36    1
    18    44    45    1
    19    45    46    1
    20    15     6    1
    21    15    16   ar
    22    16    21    2
    23    16    17   ar
    24    17    23    1
    25    17    18   ar
    26    18    19   ar
    27    19    20   ar
    28    15    20   ar
    29    18    22    2
    30     6     7    1
    31     6    11    1
    32     7     9    1
    33     7     8    1
    34     8    13    1
    35     9    10    1
    36     9    12    1
    37    10     5    1
    38    10    11    1
    39    12    14    1
    40     5     4    1
    41     4     1    1
    42     1     2    1
    43     1    24    1
    44     1     3    2
    45    24    25    1
    46    28    25    1
    47    25    26    1
    48    25    27    2
@<TRIPOS>MOLECULE
UD2
 46 48 0 0 0
SMALL
GASTEIGER

@<TRIPOS>ATOM
      1 P          22.6738   74.2970   -4.3890 P.3     1  UNL1        0.2189
      2 O          23.8421   73.1906   -4.3434 O.3     1  UNL1       -0.4371
      3 O          21.4709   73.7737   -3.7048 O.2     1  UNL1       -0.5170
      4 O          23.1737   75.6360   -3.6467 O.3     1  UNL1       -0.3112
      5 C          22.2911   76.5064   -2.9362 C.3     1  UNL1        0.1811
      6 C          22.8007   74.6046    0.0738 C.3     1  UNL1        0.2383
      7 C          24.2304   74.9322   -0.4270 C.3     1  UNL1        0.1895
      8 O          25.1393   75.0536    0.6689 O.3     1  UNL1       -0.3779
      9 C          24.0247   76.2975   -1.1278 C.3     1  UNL1        0.1713
     10 C          22.5148   76.3414   -1.4310 C.3     1  UNL1        0.1764
     11 O          21.9529   75.0961   -0.9870 O.3     1  UNL1       -0.3308
     12 O          24.3912   77.3668   -0.2544 O.3     1  UNL1       -0.3794
     13 H          26.0472   75.2576    0.4065 H       1  UNL1        0.2106
     14 H          25.3191   77.3540    0.0165 H       1  UNL1        0.2105
     15 N          22.6317   73.1596    0.2422 N.ar    1  UNL1       -0.2551
     16 C          22.3970   72.6543    1.4663 C.ar    1  UNL1        0.3323
     17 N          22.2378   71.3303    1.6504 N.ar    1  UNL1       -0.2743
     18 C          22.3101   70.4856    0.6017 C.ar    1  UNL1        0.2626
     19 C          22.5556   71.0040   -0.6926 C.ar    1  UNL1        0.0795
     20 C          22.7071   72.3360   -0.8487 C.ar    1  UNL1        0.0869
     21 O          22.3290   73.4041    2.4210 O.2     1  UNL1       -0.2464
     22 O          22.1658   69.2871    0.7669 O.2     1  UNL1       -0.2670
     23 H          22.0705   70.9825    2.5399 H       1  UNL1        0.1734
     24 O          22.3149   74.6362   -5.9218 O.3     1  UNL1       -0.2703
     25 P          21.7585   73.7674   -7.1582 P.3     1  UNL1        0.2208
     26 O          21.7050   74.6875   -8.4789 O.3     1  UNL1       -0.4371
     27 O          22.6563   72.6159   -7.3959 O.2     1  UNL1       -0.5170
     28 O          20.2787   73.2330   -6.8156 O.3     1  UNL1       -0.2865
     29 C          19.1840   73.3338   -7.7281 C.3     1  UNL1        0.2611
     30 C          17.8670   73.1603   -6.9678 C.3     1  UNL1        0.1582
     31 C          17.8269   71.7609   -6.3461 C.3     1  UNL1        0.1625
     32 C          18.0001   70.7171   -7.4528 C.3     1  UNL1        0.1686
     33 C          19.3124   70.9848   -8.1946 C.3     1  UNL1        0.1760
     34 O          16.5694   71.5635   -5.6958 O.3     1  UNL1       -0.3801
     35 O          16.9067   70.8057   -8.3682 O.3     1  UNL1       -0.3794
     36 O          19.2973   72.3129   -8.7218 O.3     1  UNL1       -0.3263
     37 H          16.4748   70.6964   -5.2783 H       1  UNL1        0.2105
     38 H          16.9515   70.1721   -9.0979 H       1  UNL1        0.2105
     39 C          16.6067   74.7951   -5.6729 C.2     1  UNL1        0.2231
     40 C          16.5128   75.8322   -4.5847 C.3     1  UNL1        0.0946
     41 N          17.7766   74.1692   -5.9093 N.am    1  UNL1       -0.2994
     42 O          15.6288   74.5226   -6.3374 O.2     1  UNL1       -0.2751
     43 H          18.5589   74.3875   -5.3789 H       1  UNL1        0.1496
     44 C          19.4639   69.9826   -9.3404 C.3     1  UNL1        0.1693
     45 O          18.7527   70.4564  -10.4858 O.3     1  UNL1       -0.3794
     46 H          18.8051   69.8694  -11.2525 H       1  UNL1        0.2105
@<TRIPOS>BOND
     1    29    30    1
     2    30    41    1
     3    30    31    1
     4    31    34    1
     5    31    32    1
     6    32    35    1
     7    32    33    1
     8    33    36    1
     9    33    44    1
    10    39    40    1
    11    39    42    2
    12    39    41   am
    13    41    43    1
    14    29    28    1
    15    34    37    1
    16    35    38    1
    17    29    36    1
    18    44    45    1
    19    45    46    1
    20    15     6    1
    21    15    16   ar
    22    16    21    2
    23    16    17   ar
    24    17    23    1
    25    17    18   ar
    26    18    19   ar
    27    19    20   ar
    28    15    20   ar
    29    18    22    2
    30     6     7    1
    31     6    11    1
    32     7     9    1
    33     7     8    1
    34     8    13    1
    35     9    10    1
    36     9    12    1
    37    10     5    1
    38    10    11    1
    39    12    14    1
    40     5     4    1
    41     4     1    1
    42     1     2    1
    43     1    24    1
    44     1     3    2
    45    24    25    1
    46    28    25    1
    47    25    26    1
    48    25    27    2
@<TRIPOS>MOLECULE
UD2
 46 48 0 0 0
SMALL
GASTEIGER

@<TRIPOS>ATOM
      1 P          21.1418   70.4060   -2.4249 P.3     1  UNL1        0.2189
      2 O          20.5555   71.8938   -2.6096 O.3     1  UNL1       -0.4371
      3 O          22.5779   70.3934   -2.7804 O.2     1  UNL1       -0.5170
      4 O          20.9643   69.9460   -0.8917 O.3     1  UNL1       -0.3112
      5 C          21.7216   70.5088    0.1812 C.3     1  UNL1        0.1811
      6 C          21.3797   73.5768    2.0270 C.3     1  UNL1        0.2383
      7 C          22.7833   73.6680    1.3760 C.3     1  UNL1        0.1895
      8 O          23.1282   75.0260    1.0956 O.3     1  UNL1       -0.3779
      9 C          22.5870   72.8661    0.0660 C.3     1  UNL1        0.1713
     10 C          21.3539   71.9856    0.3448 C.3     1  UNL1        0.1764
     11 O          20.9434   72.2401    1.6976 O.3     1  UNL1       -0.3308
     12 O          22.3340   73.7504   -1.0270 O.3     1  UNL1       -0.3794
     13 H          23.9981   75.1350    0.6880 H       1  UNL1        0.2106
     14 H          23.0548   74.3682   -1.2092 H       1  UNL1        0.2105
     15 N          21.4724   73.7466    3.4787 N.ar    1  UNL1       -0.2551
     16 C          21.9872   72.7597    4.2336 C.ar    1  UNL1        0.3323
     17 N          22.0843   72.8885    5.5701 N.ar    1  UNL1       -0.2743
     18 C          21.6652   74.0184    6.1753 C.ar    1  UNL1        0.2626
     19 C          21.1223   75.0657    5.3928 C.ar    1  UNL1        0.0795
     20 C          21.0408   74.9112    4.0545 C.ar    1  UNL1        0.0869
     21 O          22.3692   71.7354    3.7014 O.2     1  UNL1       -0.2464
     22 O          21.7529   74.1363    7.3848 O.2     1  UNL1       -0.2670
     23 H          22.4568   72.1666    6.0996 H       1  UNL1        0.1734
     24 O          20.3419   69.3905   -3.3852 O.3     1  UNL1       -0.2703
     25 P          18.7846   69.1722   -3.7317 P.3     1  UNL1        0.2208
     26 O          18.5025   67.6042   -3.9675 O.3     1  UNL1       -0.4371
     27 O          17.9558   69.6582   -2.6069 O.2     1  UNL1       -0.5170
     28 O          18.4119   69.9916   -5.0667 O.3     1  UNL1       -0.2865
     29 C          19.2154   71.0579   -5.5754 C.3     1  UNL1        0.2611
     30 C          18.3803   72.3386   -5.6458 C.3     1  UNL1        0.1582
     31 C          17.2175   72.1268   -6.6202 C.3     1  UNL1        0.1625
     32 C          17.7778   71.7234   -7.9868 C.3     1  UNL1        0.1686
     33 C          18.6364   70.4660   -7.8261 C.3     1  UNL1        0.1760
     34 O          16.4748   73.3414   -6.7482 O.3     1  UNL1       -0.3801
     35 O          18.5787   72.7859   -8.5072 O.3     1  UNL1       -0.3794
     36 O          19.6802   70.7210   -6.8841 O.3     1  UNL1       -0.3263
     37 H          15.7212   73.2794   -7.3510 H       1  UNL1        0.2105
     38 H          18.9676   72.5985   -9.3731 H       1  UNL1        0.2105
     39 C          16.6185   72.2417   -3.9652 C.2     1  UNL1        0.2231
     40 C          16.0759   72.5641   -2.5976 C.3     1  UNL1        0.0946
     41 N          17.8532   72.6528   -4.3154 N.am    1  UNL1       -0.2994
     42 O          15.9438   71.6116   -4.7525 O.2     1  UNL1       -0.2751
     43 H          18.3925   73.1575   -3.6866 H       1  UNL1        0.1496
     44 C          19.2485   70.0906   -9.1770 C.3     1  UNL1        0.1693
     45 O          18.4420   70.6220  -10.2304 O.3     1  UNL1       -0.3794
     46 H          18.7711   70.4222  -11.1174 H       1  UNL1        0.2105
@<TRIPOS>BOND
     1    29    30    1
     2    30    41    1
     3    30    31    1
     4    31    34    1
     5    31    32    1
     6    32    35    1
     7    32    33    1
     8    33    36    1
     9    33    44    1
    10    39    40    1
    11    39    42    2
    12    39    41   am
    13    41    43    1
    14    29    28    1
    15    34    37    1
    16    35    38    1
    17    29    36    1
    18    44    45    1
    19    45    46    1
    20    15     6    1
    21    15    16   ar
    22    16    21    2
    23    16    17   ar
    24    17    23    1
    25    17    18   ar
    26    18    19   ar
    27    19    20   ar
    28    15    20   ar
    29    18    22    2
    30     6     7    1
    31     6    11    1
    32     7     9    1
    33     7     8    1
    34     8    13    1
    35     9    10    1
    36     9    12    1
    37    10     5    1
    38    10    11    1
    39    12    14    1
    40     5     4    1
    41     4     1    1
    42     1     2    1
    43     1    24    1
    44     1     3    2
    45    24    25    1
    46    28    25    1
    47    25    26    1
    48    25    27    2
