@<TRIPOS>MOLECULE
*****
 43 45 0 0 0
SMALL
GASTEIGER

@<TRIPOS>ATOM
      1 P          22.9419   71.8904   -2.4598 P.3     1  UNL1        0.2189
      2 O          23.3748   73.3077   -1.8096 O.co2   1  UNL1       -0.4371
      3 O          23.9885   71.2402   -3.3164 O.2     1  UNL1       -0.5170
      4 O          21.5353   72.2122   -3.1919 O.3     1  UNL1       -0.3112
      5 C          20.8022   71.1374   -3.7502 C.3     1  UNL1        0.1811
      6 O          18.7325   71.8676   -4.7302 O.3     1  UNL1       -0.3308
      7 O          17.3751   70.4660   -2.4533 O.3     1  UNL1       -0.3794
      8 O          17.0890   68.6893   -4.5021 O.3     1  UNL1       -0.3779
      9 C          18.5552   70.0967   -3.1672 C.3     1  UNL1        0.1713
     10 C          18.1939   69.5682   -4.5392 C.3     1  UNL1        0.1895
     11 C          19.3168   71.3706   -3.5068 C.3     1  UNL1        0.1764
     12 C          17.8976   70.8481   -5.3021 C.3     1  UNL1        0.2383
     13 H          16.8718   69.6683   -2.2253 H       1  UNL1        0.2105
     14 H          17.3281   67.8902   -4.0059 H       1  UNL1        0.2106
     15 O          15.9694   70.3516   -7.3051 O.2     1  UNL1       -0.2464
     16 O          19.1492   70.4250  -10.6409 O.2     1  UNL1       -0.2670
     17 N          18.1941   70.7327   -6.7020 N.ar    1  UNL1       -0.2551
     18 N          17.5551   70.3876   -8.9645 N.ar    1  UNL1       -0.2743
     19 C          17.1522   70.4820   -7.6259 C.ar    1  UNL1        0.3323
     20 C          19.5034   70.8691   -7.1472 C.ar    1  UNL1        0.0869
     21 C          19.8720   70.7767   -8.4264 C.ar    1  UNL1        0.0795
     22 C          18.8443   70.5153   -9.4555 C.ar    1  UNL1        0.2626
     23 H          16.8475   70.2114   -9.6260 H       1  UNL1        0.1734
     24 O          22.4914   71.0230   -1.1723 O.3     1  UNL1       -0.2703
     25 P          21.6880   71.4472    0.1649 P.3     1  UNL1        0.2208
     26 O          21.4092   70.0293    0.8943 O.co2   1  UNL1       -0.4371
     27 O          20.4547   72.2642   -0.0907 O.2     1  UNL1       -0.5170
     28 O          22.7910   72.1722    1.0924 O.3     1  UNL1       -0.2858
     29 O          24.5606   71.6951    2.5925 O.3     1  UNL1       -0.3226
     30 O          22.2033   74.2271    4.8510 O.3     1  UNL1       -0.3794
     31 O          20.9844   72.1425    3.2069 O.3     1  UNL1       -0.3775
     32 O          24.6740   75.2011    3.6686 O.3     1  UNL1       -0.3792
     33 C          22.7830   73.7081    3.6541 C.3     1  UNL1        0.1718
     34 C          22.3768   72.2442    3.4818 C.3     1  UNL1        0.1968
     35 C          24.3039   73.8277    3.7748 C.3     1  UNL1        0.1723
     36 C          23.1586   71.5901    2.3417 C.3     1  UNL1        0.2706
     37 C          25.0134   73.0447    2.6738 C.3     1  UNL1        0.1830
     38 H          21.2369   74.1614    4.7973 H       1  UNL1        0.2105
     39 H          20.4822   72.5558    3.9262 H       1  UNL1        0.2106
     40 H          24.2290   75.7106    4.3637 H       1  UNL1        0.2106
     41 O          27.0137   74.0889    3.3141 O.co2   1  UNL1       -0.5466
     42 O          27.0854   71.8394    2.9486 O.co2   1  UNL1       -0.5466
     43 C          26.4671   72.8927    2.9835 C.2     1  UNL1        0.0799
@<TRIPOS>UNITY_ATOM_ATTR
2 1
charge -1
26 1
charge -1
41 1
charge -1
@<TRIPOS>BOND
     1     1     4    1
     2     1    24    1
     3     1     2    1
     4     1     3    2
     5    25    28    1
     6    25    24    1
     7    25    26    1
     8    25    27    2
     9     6    11    1
    10     6    12    1
    11    29    36    1
    12    29    37    1
    13     7     9    1
    14     7    13    1
    15     8    10    1
    16     8    14    1
    17     4     5    1
    18    28    36    1
    19    30    33    1
    20    30    38    1
    21    31    34    1
    22    31    39    1
    23    32    35    1
    24    32    40    1
    25    41    43   ar
    26    15    19    2
    27    42    43   ar
    28    16    22    2
    29    17    12    1
    30    17    19   ar
    31    17    20   ar
    32    18    19   ar
    33    18    22   ar
    34    18    23    1
    35     9    10    1
    36     9    11    1
    37    10    12    1
    38    11     5    1
    39    33    34    1
    40    33    35    1
    41    34    36    1
    42    35    37    1
    43    37    43    1
    44    20    21   ar
    45    21    22   ar
@<TRIPOS>MOLECULE
*****
 43 45 0 0 0
SMALL
GASTEIGER

@<TRIPOS>ATOM
      1 P          22.9997   71.5785   -2.5975 P.3     1  UNL1        0.2189
      2 O          23.0506   73.1389   -2.1715 O.co2   1  UNL1       -0.4371
      3 O          24.2809   71.0321   -3.1559 O.2     1  UNL1       -0.5170
      4 O          21.7116   71.4835   -3.5720 O.3     1  UNL1       -0.3112
      5 C          21.5470   72.4710   -4.5731 C.3     1  UNL1        0.1811
      6 O          20.5822   70.5992   -5.7320 O.3     1  UNL1       -0.3308
      7 O          20.9969   72.1799   -8.2461 O.3     1  UNL1       -0.3794
      8 O          18.3410   72.5428   -7.7454 O.3     1  UNL1       -0.3779
      9 C          20.6342   72.6347   -6.9422 C.3     1  UNL1        0.1713
     10 C          19.1911   72.2844   -6.6475 C.3     1  UNL1        0.1895
     11 C          21.3825   71.7858   -5.9236 C.3     1  UNL1        0.1764
     12 C          19.2868   70.8046   -6.3176 C.3     1  UNL1        0.2383
     13 H          20.5311   72.7076   -8.9142 H       1  UNL1        0.2105
     14 H          18.3135   73.4980   -7.9152 H       1  UNL1        0.2106
     15 O          16.7085   69.9111   -7.0460 O.2     1  UNL1       -0.2464
     16 O          15.5069   69.2200   -2.6503 O.2     1  UNL1       -0.2670
     17 N          18.2803   70.3851   -5.3838 N.ar    1  UNL1       -0.2551
     18 N          16.1122   69.5687   -4.8559 N.ar    1  UNL1       -0.2743
     19 C          17.0172   69.9541   -5.8537 C.ar    1  UNL1        0.3323
     20 C          18.5491   70.4016   -4.0206 C.ar    1  UNL1        0.0869
     21 C          17.6763   70.0311   -3.0815 C.ar    1  UNL1        0.0795
     22 C          16.3332   69.5684   -3.4882 C.ar    1  UNL1        0.2626
     23 H          15.2253   69.2667   -5.1586 H       1  UNL1        0.1734
     24 O          22.4888   70.8503   -1.2478 O.3     1  UNL1       -0.2703
     25 P          21.6759   71.4253    0.0258 P.3     1  UNL1        0.2208
     26 O          21.3233   70.0914    0.8724 O.co2   1  UNL1       -0.4371
     27 O          20.4831   72.2638   -0.3323 O.2     1  UNL1       -0.5170
     28 O          22.7884   72.1873    0.9113 O.3     1  UNL1       -0.2858
     29 O          24.5308   71.8864    2.4870 O.3     1  UNL1       -0.3226
     30 O          21.9129   74.3021    4.5797 O.3     1  UNL1       -0.3794
     31 O          20.9111   72.0860    2.9611 O.3     1  UNL1       -0.3775
     32 O          24.3484   75.4210    3.4541 O.3     1  UNL1       -0.3792
     33 C          22.5730   73.7926    3.4210 C.3     1  UNL1        0.1718
     34 C          22.2812   72.2983    3.2812 C.3     1  UNL1        0.1968
     35 C          24.0756   74.0277    3.5910 C.3     1  UNL1        0.1723
     36 C          23.1505   71.6707    2.1907 C.3     1  UNL1        0.2706
     37 C          24.8808   73.2676    2.5411 C.3     1  UNL1        0.1830
     38 H          20.9564   74.1636    4.4942 H       1  UNL1        0.2105
     39 H          20.3537   72.4819    3.6488 H       1  UNL1        0.2106
     40 H          23.8419   75.9164    4.1166 H       1  UNL1        0.2106
     41 O          26.8143   74.4894    3.0611 O.co2   1  UNL1       -0.5466
     42 O          26.9920   72.2162    3.0499 O.co2   1  UNL1       -0.5466
     43 C          26.3291   73.2325    2.9062 C.2     1  UNL1        0.0799
@<TRIPOS>UNITY_ATOM_ATTR
2 1
charge -1
26 1
charge -1
41 1
charge -1
@<TRIPOS>BOND
     1     1     4    1
     2     1    24    1
     3     1     2    1
     4     1     3    2
     5    25    28    1
     6    25    24    1
     7    25    26    1
     8    25    27    2
     9     6    11    1
    10     6    12    1
    11    29    36    1
    12    29    37    1
    13     7     9    1
    14     7    13    1
    15     8    10    1
    16     8    14    1
    17     4     5    1
    18    28    36    1
    19    30    33    1
    20    30    38    1
    21    31    34    1
    22    31    39    1
    23    32    35    1
    24    32    40    1
    25    41    43   ar
    26    15    19    2
    27    42    43   ar
    28    16    22    2
    29    17    12    1
    30    17    19   ar
    31    17    20   ar
    32    18    19   ar
    33    18    22   ar
    34    18    23    1
    35     9    10    1
    36     9    11    1
    37    10    12    1
    38    11     5    1
    39    33    34    1
    40    33    35    1
    41    34    36    1
    42    35    37    1
    43    37    43    1
    44    20    21   ar
    45    21    22   ar
@<TRIPOS>MOLECULE
*****
 43 45 0 0 0
SMALL
GASTEIGER

@<TRIPOS>ATOM
      1 P          20.7982   71.5900   -1.9246 P.3     1  UNL1        0.2189
      2 O          19.9351   70.5865   -0.9934 O.co2   1  UNL1       -0.4371
      3 O          20.1626   72.9261   -2.1749 O.2     1  UNL1       -0.5170
      4 O          21.1274   70.7106   -3.2423 O.3     1  UNL1       -0.3112
      5 C          20.1341   69.8287   -3.7321 C.3     1  UNL1        0.1811
      6 O          18.5462   71.2706   -4.8169 O.3     1  UNL1       -0.3308
      7 O          16.5193   70.1722   -2.8994 O.3     1  UNL1       -0.3794
      8 O          15.9945   68.7789   -5.1840 O.3     1  UNL1       -0.3779
      9 C          17.6179   69.5126   -3.5291 C.3     1  UNL1        0.1713
     10 C          17.3089   69.2574   -4.9891 C.3     1  UNL1        0.1895
     11 C          18.7724   70.5014   -3.6159 C.3     1  UNL1        0.1764
     12 C          17.5286   70.6297   -5.6026 C.3     1  UNL1        0.2383
     13 H          15.7693   69.5600   -2.8327 H       1  UNL1        0.2105
     14 H          15.9055   67.9029   -4.7758 H       1  UNL1        0.2106
     15 O          15.8063   70.3313   -7.8209 O.2     1  UNL1       -0.2464
     16 O          19.3300   70.3583  -10.7919 O.2     1  UNL1       -0.2670
     17 N          17.9693   70.5560   -6.9668 N.ar    1  UNL1       -0.2551
     18 N          17.5630   70.3440   -9.2984 N.ar    1  UNL1       -0.2743
     19 C          17.0223   70.4057   -8.0073 C.ar    1  UNL1        0.3323
     20 C          19.3247   70.6341   -7.2631 C.ar    1  UNL1        0.0869
     21 C          19.8250   70.5740   -8.4987 C.ar    1  UNL1        0.0795
     22 C          18.9031   70.4166   -9.6427 C.ar    1  UNL1        0.2626
     23 H          16.9233   70.2374  -10.0392 H       1  UNL1        0.1734
     24 O          22.2236   71.6541   -1.1650 O.3     1  UNL1       -0.2703
     25 P          22.6886   72.4675    0.1525 P.3     1  UNL1        0.2208
     26 O          21.4159   73.4161    0.4699 O.co2   1  UNL1       -0.4371
     27 O          23.9861   73.2060   -0.0058 O.2     1  UNL1       -0.5170
     28 O          22.6830   71.3697    1.3345 O.3     1  UNL1       -0.2858
     29 O          24.2445   72.4408    2.7570 O.3     1  UNL1       -0.3226
     30 O          20.9357   74.8831    3.1505 O.3     1  UNL1       -0.3794
     31 O          20.6359   71.9773    3.1166 O.3     1  UNL1       -0.3775
     32 O          23.1937   75.7351    1.5300 O.3     1  UNL1       -0.3792
     33 C          21.8255   73.9927    2.4771 C.3     1  UNL1        0.1718
     34 C          21.8794   72.6603    3.2250 C.3     1  UNL1        0.1968
     35 C          23.2108   74.6422    2.4464 C.3     1  UNL1        0.1723
     36 C          22.9889   71.7660    2.6702 C.3     1  UNL1        0.2706
     37 C          24.2816   73.6499    2.0022 C.3     1  UNL1        0.1830
     38 H          20.0487   74.4912    3.1823 H       1  UNL1        0.2105
     39 H          19.9272   72.5392    3.4666 H       1  UNL1        0.2106
     40 H          22.5162   76.3740    1.8012 H       1  UNL1        0.2106
     41 O          26.3418   73.3222    3.0746 O.co2   1  UNL1       -0.5466
     42 O          26.0897   75.2421    1.8707 O.co2   1  UNL1       -0.5466
     43 C          25.6485   74.1816    2.2874 C.2     1  UNL1        0.0799
@<TRIPOS>UNITY_ATOM_ATTR
2 1
charge -1
26 1
charge -1
41 1
charge -1
@<TRIPOS>BOND
     1     1     4    1
     2     1    24    1
     3     1     2    1
     4     1     3    2
     5    25    28    1
     6    25    24    1
     7    25    26    1
     8    25    27    2
     9     6    11    1
    10     6    12    1
    11    29    36    1
    12    29    37    1
    13     7     9    1
    14     7    13    1
    15     8    10    1
    16     8    14    1
    17     4     5    1
    18    28    36    1
    19    30    33    1
    20    30    38    1
    21    31    34    1
    22    31    39    1
    23    32    35    1
    24    32    40    1
    25    41    43   ar
    26    15    19    2
    27    42    43   ar
    28    16    22    2
    29    17    12    1
    30    17    19   ar
    31    17    20   ar
    32    18    19   ar
    33    18    22   ar
    34    18    23    1
    35     9    10    1
    36     9    11    1
    37    10    12    1
    38    11     5    1
    39    33    34    1
    40    33    35    1
    41    34    36    1
    42    35    37    1
    43    37    43    1
    44    20    21   ar
    45    21    22   ar
@<TRIPOS>MOLECULE
*****
 43 45 0 0 0
SMALL
GASTEIGER

@<TRIPOS>ATOM
      1 P          22.9847   71.3116   -2.4149 P.3     1  UNL1        0.2189
      2 O          22.7170   72.9073   -2.4419 O.co2   1  UNL1       -0.4371
      3 O          24.2631   70.8725   -3.0666 O.2     1  UNL1       -0.5170
      4 O          21.6287   70.6797   -3.0314 O.3     1  UNL1       -0.3112
      5 C          20.9650   71.3822   -4.0660 C.3     1  UNL1        0.1811
      6 O          21.0852   70.5760   -6.3273 O.3     1  UNL1       -0.3308
      7 O          23.2602   72.5994   -6.7360 O.3     1  UNL1       -0.3794
      8 O          21.0949   73.8166   -7.8611 O.3     1  UNL1       -0.3779
      9 C          22.0772   72.6922   -5.9420 C.3     1  UNL1        0.1713
     10 C          20.8645   72.8811   -6.8285 C.3     1  UNL1        0.1895
     11 C          21.8139   71.3234   -5.3294 C.3     1  UNL1        0.1764
     12 C          20.6359   71.4743   -7.3542 C.3     1  UNL1        0.2383
     13 H          23.4488   73.4623   -7.1379 H       1  UNL1        0.2105
     14 H          21.2343   74.6962   -7.4754 H       1  UNL1        0.2106
     15 O          19.6166   70.8293   -9.9080 O.2     1  UNL1       -0.2464
     16 O          15.3097   70.4847   -8.3030 O.2     1  UNL1       -0.2670
     17 N          19.2522   71.2112   -7.6320 N.ar    1  UNL1       -0.2551
     18 N          17.4724   70.6593   -9.1064 N.ar    1  UNL1       -0.2743
     19 C          18.8443   70.8964   -8.9498 C.ar    1  UNL1        0.3323
     20 C          18.3165   71.2644   -6.6061 C.ar    1  UNL1        0.0869
     21 C          17.0121   71.0358   -6.7707 C.ar    1  UNL1        0.0795
     22 C          16.5034   70.7012   -8.1170 C.ar    1  UNL1        0.2626
     23 H          17.1642   70.4403  -10.0154 H       1  UNL1        0.1734
     24 O          22.8717   70.9511   -0.8432 O.3     1  UNL1       -0.2703
     25 P          21.8249   71.4437    0.2861 P.3     1  UNL1        0.2208
     26 O          21.4842   70.0826    1.0934 O.co2   1  UNL1       -0.4371
     27 O          20.6216   72.1572   -0.2588 O.2     1  UNL1       -0.5170
     28 O          22.7117   72.3154    1.3138 O.3     1  UNL1       -0.2858
     29 O          24.5583   71.8854    2.7330 O.3     1  UNL1       -0.3226
     30 O          22.2102   74.3066    5.1189 O.3     1  UNL1       -0.3794
     31 O          20.9975   72.1980    3.5010 O.3     1  UNL1       -0.3775
     32 O          24.5932   75.3811    3.8470 O.3     1  UNL1       -0.3792
     33 C          22.7571   73.8218    3.8925 C.3     1  UNL1        0.1718
     34 C          22.3958   72.3464    3.7190 C.3     1  UNL1        0.1968
     35 C          24.2765   73.9943    3.9514 C.3     1  UNL1        0.1723
     36 C          23.1516   71.7331    2.5394 C.3     1  UNL1        0.2706
     37 C          24.9663   73.2494    2.8122 C.3     1  UNL1        0.1830
     38 H          21.2452   74.2071    5.1045 H       1  UNL1        0.2105
     39 H          20.5118   72.5852    4.2456 H       1  UNL1        0.2106
     40 H          24.1601   75.8668    4.5663 H       1  UNL1        0.2106
     41 O          26.8714   71.8813    2.8356 O.co2   1  UNL1       -0.5466
     42 O          27.1549   74.0691    3.4121 O.co2   1  UNL1       -0.5466
     43 C          26.4362   73.1460    3.0593 C.2     1  UNL1        0.0799
@<TRIPOS>UNITY_ATOM_ATTR
2 1
charge -1
26 1
charge -1
41 1
charge -1
@<TRIPOS>BOND
     1     1     4    1
     2     1    24    1
     3     1     2    1
     4     1     3    2
     5    25    28    1
     6    25    24    1
     7    25    26    1
     8    25    27    2
     9     6    11    1
    10     6    12    1
    11    29    36    1
    12    29    37    1
    13     7     9    1
    14     7    13    1
    15     8    10    1
    16     8    14    1
    17     4     5    1
    18    28    36    1
    19    30    33    1
    20    30    38    1
    21    31    34    1
    22    31    39    1
    23    32    35    1
    24    32    40    1
    25    41    43   ar
    26    15    19    2
    27    42    43   ar
    28    16    22    2
    29    17    12    1
    30    17    19   ar
    31    17    20   ar
    32    18    19   ar
    33    18    22   ar
    34    18    23    1
    35     9    10    1
    36     9    11    1
    37    10    12    1
    38    11     5    1
    39    33    34    1
    40    33    35    1
    41    34    36    1
    42    35    37    1
    43    37    43    1
    44    20    21   ar
    45    21    22   ar
@<TRIPOS>MOLECULE
*****
 43 45 0 0 0
SMALL
GASTEIGER

@<TRIPOS>ATOM
      1 P          22.4561   71.6930   -2.3976 P.3     1  UNL1        0.2189
      2 O          22.6580   73.2783   -2.6522 O.co2   1  UNL1       -0.4371
      3 O          23.7004   70.8657   -2.5357 O.2     1  UNL1       -0.5170
      4 O          21.2345   71.2941   -3.3807 O.3     1  UNL1       -0.3112
      5 C          20.5847   72.3235   -4.1037 C.3     1  UNL1        0.1811
      6 O          18.4068   72.4120   -5.1169 O.3     1  UNL1       -0.3308
      7 O          17.4039   71.0512   -2.6402 O.3     1  UNL1       -0.3794
      8 O          17.5543   68.9982   -4.4286 O.3     1  UNL1       -0.3779
      9 C          18.6416   70.8751   -3.3298 C.3     1  UNL1        0.1713
     10 C          18.4221   70.0975   -4.6103 C.3     1  UNL1        0.1895
     11 C          19.0847   72.2341   -3.8543 C.3     1  UNL1        0.1764
     12 C          17.8379   71.1585   -5.5273 C.3     1  UNL1        0.2383
     13 H          17.1007   70.1962   -2.2959 H       1  UNL1        0.2105
     14 H          17.9716   68.3511   -3.8378 H       1  UNL1        0.2106
     15 O          16.0051   70.2169   -7.4588 O.2     1  UNL1       -0.2464
     16 O          19.1877   70.3127  -10.7913 O.2     1  UNL1       -0.2670
     17 N          18.1609   70.9285   -6.9070 N.ar    1  UNL1       -0.2551
     18 N          17.5922   70.2646   -9.1165 N.ar    1  UNL1       -0.2743
     19 C          17.1667   70.4543   -7.7951 C.ar    1  UNL1        0.3323
     20 C          19.4487   71.1736   -7.3680 C.ar    1  UNL1        0.0869
     21 C          19.8393   70.9881   -8.6304 C.ar    1  UNL1        0.0795
     22 C          18.8617   70.4937   -9.6220 C.ar    1  UNL1        0.2626
     23 H          16.9181   69.9330   -9.7529 H       1  UNL1        0.1734
     24 O          21.7744   71.6446   -0.9328 O.3     1  UNL1       -0.2703
     25 P          22.3846   71.2421    0.5092 P.3     1  UNL1        0.2208
     26 O          23.9818   71.2350    0.2459 O.co2   1  UNL1       -0.4371
     27 O          21.8445   69.9584    1.0698 O.2     1  UNL1       -0.5170
     28 O          22.1306   72.5372    1.4370 O.3     1  UNL1       -0.2858
     29 O          21.1829   72.7391    3.5980 O.3     1  UNL1       -0.3226
     30 O          19.9495   76.2521    1.8076 O.3     1  UNL1       -0.3794
     31 O          19.8755   73.7322    0.3314 O.3     1  UNL1       -0.3775
     32 O          22.1185   76.2839    3.7430 O.3     1  UNL1       -0.3792
     33 C          20.8263   75.1525    2.0533 C.3     1  UNL1        0.1718
     34 C          20.1069   73.8425    1.7310 C.3     1  UNL1        0.1968
     35 C          21.2291   75.1895    3.5292 C.3     1  UNL1        0.1723
     36 C          20.9275   72.6389    2.1965 C.3     1  UNL1        0.2706
     37 C          21.9318   73.9011    3.9472 C.3     1  UNL1        0.1830
     38 H          19.6801   76.2491    0.8756 H       1  UNL1        0.2105
     39 H          19.3555   74.4929    0.0292 H       1  UNL1        0.2106
     40 H          21.6833   77.1102    3.4806 H       1  UNL1        0.2106
     41 O          21.4164   74.8673    6.0214 O.co2   1  UNL1       -0.5466
     42 O          22.5682   72.8996    6.0480 O.co2   1  UNL1       -0.5466
     43 C          22.0242   73.8061    5.4354 C.2     1  UNL1        0.0799
@<TRIPOS>UNITY_ATOM_ATTR
2 1
charge -1
26 1
charge -1
41 1
charge -1
@<TRIPOS>BOND
     1     1     4    1
     2     1    24    1
     3     1     2    1
     4     1     3    2
     5    25    28    1
     6    25    24    1
     7    25    26    1
     8    25    27    2
     9     6    11    1
    10     6    12    1
    11    29    36    1
    12    29    37    1
    13     7     9    1
    14     7    13    1
    15     8    10    1
    16     8    14    1
    17     4     5    1
    18    28    36    1
    19    30    33    1
    20    30    38    1
    21    31    34    1
    22    31    39    1
    23    32    35    1
    24    32    40    1
    25    41    43   ar
    26    15    19    2
    27    42    43   ar
    28    16    22    2
    29    17    12    1
    30    17    19   ar
    31    17    20   ar
    32    18    19   ar
    33    18    22   ar
    34    18    23    1
    35     9    10    1
    36     9    11    1
    37    10    12    1
    38    11     5    1
    39    33    34    1
    40    33    35    1
    41    34    36    1
    42    35    37    1
    43    37    43    1
    44    20    21   ar
    45    21    22   ar
@<TRIPOS>MOLECULE
*****
 43 45 0 0 0
SMALL
GASTEIGER

@<TRIPOS>ATOM
      1 P          23.1947   72.0192   -3.2380 P.3     1  UNL1        0.2189
      2 O          24.2104   72.5800   -4.3662 O.co2   1  UNL1       -0.4371
      3 O          23.7696   70.9686   -2.3338 O.2     1  UNL1       -0.5170
      4 O          21.8834   71.5816   -4.0788 O.3     1  UNL1       -0.3112
      5 C          21.1291   70.4722   -3.6262 C.3     1  UNL1        0.1811
      6 O          19.1724   71.5705   -4.4878 O.3     1  UNL1       -0.3308
      7 O          17.6877   70.3074   -2.2093 O.3     1  UNL1       -0.3794
      8 O          17.0409   68.6932   -4.3098 O.3     1  UNL1       -0.3779
      9 C          18.7648   69.7841   -2.9868 C.3     1  UNL1        0.1713
     10 C          18.2724   69.3825   -4.3611 C.3     1  UNL1        0.1895
     11 C          19.7116   70.9317   -3.3104 C.3     1  UNL1        0.1764
     12 C          18.1619   70.7260   -5.0615 C.3     1  UNL1        0.2383
     13 H          17.0694   69.5923   -1.9903 H       1  UNL1        0.2105
     14 H          17.1640   67.8447   -3.8549 H       1  UNL1        0.2106
     15 O          16.1941   69.9557   -6.9352 O.2     1  UNL1       -0.2464
     16 O          19.1283   70.3783  -10.4645 O.2     1  UNL1       -0.2670
     17 N          18.3845   70.6264   -6.4762 N.ar    1  UNL1       -0.2551
     18 N          17.6577   70.1659   -8.6911 N.ar    1  UNL1       -0.2743
     19 C          17.3286   70.2302   -7.3307 C.ar    1  UNL1        0.3323
     20 C          19.6359   70.9209   -7.0038 C.ar    1  UNL1        0.0869
     21 C          19.9343   70.8552   -8.3028 C.ar    1  UNL1        0.0795
     22 C          18.8875   70.4485   -9.2631 C.ar    1  UNL1        0.2626
     23 H          16.9393   69.8904   -9.3054 H       1  UNL1        0.1734
     24 O          22.7108   73.3648   -2.4843 O.3     1  UNL1       -0.2703
     25 P          23.5556   74.5898   -1.8525 P.3     1  UNL1        0.2208
     26 O          22.4061   75.5764   -1.2819 O.co2   1  UNL1       -0.4371
     27 O          24.5083   75.2408   -2.8130 O.2     1  UNL1       -0.5170
     28 O          24.2515   73.9708   -0.5354 O.3     1  UNL1       -0.2858
     29 O          22.5853   73.2273    0.9747 O.3     1  UNL1       -0.3226
     30 O          26.0445   72.4882    3.1091 O.3     1  UNL1       -0.3794
     31 O          25.7416   74.9662    1.5918 O.3     1  UNL1       -0.3775
     32 O          24.6067   70.2946    1.8554 O.3     1  UNL1       -0.3792
     33 C          25.2385   72.6182    1.9380 C.3     1  UNL1        0.1718
     34 C          24.6903   74.0426    1.8496 C.3     1  UNL1        0.1968
     35 C          24.0905   71.6114    2.0399 C.3     1  UNL1        0.1723
     36 C          23.6430   74.1580    0.7411 C.3     1  UNL1        0.2706
     37 C          23.0258   71.8712    0.9781 C.3     1  UNL1        0.1830
     38 H          26.7808   73.1185    3.0666 H       1  UNL1        0.2105
     39 H          26.4099   74.8982    2.2912 H       1  UNL1        0.2106
     40 H          25.2855   70.1166    2.5249 H       1  UNL1        0.2106
     41 O          20.8820   71.9036    1.9291 O.co2   1  UNL1       -0.5466
     42 O          21.5758   69.9429    0.9947 O.co2   1  UNL1       -0.5466
     43 C          21.7753   71.1131    1.2842 C.2     1  UNL1        0.0799
@<TRIPOS>UNITY_ATOM_ATTR
2 1
charge -1
26 1
charge -1
41 1
charge -1
@<TRIPOS>BOND
     1     1     4    1
     2     1    24    1
     3     1     2    1
     4     1     3    2
     5    25    28    1
     6    25    24    1
     7    25    26    1
     8    25    27    2
     9     6    11    1
    10     6    12    1
    11    29    36    1
    12    29    37    1
    13     7     9    1
    14     7    13    1
    15     8    10    1
    16     8    14    1
    17     4     5    1
    18    28    36    1
    19    30    33    1
    20    30    38    1
    21    31    34    1
    22    31    39    1
    23    32    35    1
    24    32    40    1
    25    41    43   ar
    26    15    19    2
    27    42    43   ar
    28    16    22    2
    29    17    12    1
    30    17    19   ar
    31    17    20   ar
    32    18    19   ar
    33    18    22   ar
    34    18    23    1
    35     9    10    1
    36     9    11    1
    37    10    12    1
    38    11     5    1
    39    33    34    1
    40    33    35    1
    41    34    36    1
    42    35    37    1
    43    37    43    1
    44    20    21   ar
    45    21    22   ar
@<TRIPOS>MOLECULE
*****
 43 45 0 0 0
SMALL
GASTEIGER

@<TRIPOS>ATOM
      1 P          23.3208   71.9300   -2.9393 P.3     1  UNL1        0.2189
      2 O          23.8855   73.2914   -3.6075 O.co2   1  UNL1       -0.4371
      3 O          24.2386   70.7470   -3.0393 O.2     1  UNL1       -0.5170
      4 O          21.8602   71.7447   -3.6103 O.3     1  UNL1       -0.3112
      5 C          21.4631   72.6479   -4.6257 C.3     1  UNL1        0.1811
      6 O          20.5993   70.6834   -5.7084 O.3     1  UNL1       -0.3308
      7 O          20.9872   72.1615   -8.2883 O.3     1  UNL1       -0.3794
      8 O          18.3102   72.4306   -7.8441 O.3     1  UNL1       -0.3779
      9 C          20.5836   72.6604   -7.0129 C.3     1  UNL1        0.1713
     10 C          19.1522   72.2613   -6.7230 C.3     1  UNL1        0.1895
     11 C          21.3508   71.8937   -5.9444 C.3     1  UNL1        0.1764
     12 C          19.3062   70.8042   -6.3219 C.3     1  UNL1        0.2383
     13 H          20.5102   72.6364   -8.9873 H       1  UNL1        0.2105
     14 H          18.2443   73.3746   -8.0594 H       1  UNL1        0.2106
     15 O          16.7656   69.8038   -7.0441 O.2     1  UNL1       -0.2464
     16 O          15.5386   69.2265   -2.6390 O.2     1  UNL1       -0.2670
     17 N          18.3034   70.3851   -5.3840 N.ar    1  UNL1       -0.2551
     18 N          16.1566   69.5182   -4.8494 N.ar    1  UNL1       -0.2743
     19 C          17.0598   69.8978   -5.8509 C.ar    1  UNL1        0.3323
     20 C          18.5566   70.4571   -4.0196 C.ar    1  UNL1        0.0869
     21 C          17.6857   70.0914   -3.0768 C.ar    1  UNL1        0.0795
     22 C          16.3626   69.5721   -3.4804 C.ar    1  UNL1        0.2626
     23 H          15.2831   69.1776   -5.1501 H       1  UNL1        0.1734
     24 O          22.9714   72.3853   -1.4282 O.3     1  UNL1       -0.2703
     25 P          22.4890   71.5271   -0.1458 P.3     1  UNL1        0.2208
     26 O          23.8151   70.6928    0.2610 O.co2   1  UNL1       -0.4371
     27 O          21.2760   70.6779   -0.3939 O.2     1  UNL1       -0.5170
     28 O          22.3149   72.6150    1.0327 O.3     1  UNL1       -0.2858
     29 O          22.0237   72.4795    3.3792 O.3     1  UNL1       -0.3226
     30 O          19.4923   75.5930    2.3964 O.3     1  UNL1       -0.3794
     31 O          19.6128   73.1989    0.7265 O.3     1  UNL1       -0.3775
     32 O          22.0554   76.1380    3.6551 O.3     1  UNL1       -0.3792
     33 C          20.6455   74.7612    2.2689 C.3     1  UNL1        0.1718
     34 C          20.2099   73.3182    2.0126 C.3     1  UNL1        0.1968
     35 C          21.4414   74.8532    3.5727 C.3     1  UNL1        0.1723
     36 C          21.4014   72.3635    2.0990 C.3     1  UNL1        0.2706
     37 C          22.5310   73.7869    3.6367 C.3     1  UNL1        0.1830
     38 H          18.9708   75.5504    1.5793 H       1  UNL1        0.2105
     39 H          18.8561   73.8022    0.6646 H       1  UNL1        0.2106
     40 H          21.3726   76.8258    3.6153 H       1  UNL1        0.2106
     41 O          22.5445   72.5933    5.6558 O.co2   1  UNL1       -0.5466
     42 O          23.8911   74.4286    5.5235 O.co2   1  UNL1       -0.5466
     43 C          23.0763   73.6681    5.0227 C.2     1  UNL1        0.0799
@<TRIPOS>UNITY_ATOM_ATTR
2 1
charge -1
26 1
charge -1
41 1
charge -1
@<TRIPOS>BOND
     1     1     4    1
     2     1    24    1
     3     1     2    1
     4     1     3    2
     5    25    28    1
     6    25    24    1
     7    25    26    1
     8    25    27    2
     9     6    11    1
    10     6    12    1
    11    29    36    1
    12    29    37    1
    13     7     9    1
    14     7    13    1
    15     8    10    1
    16     8    14    1
    17     4     5    1
    18    28    36    1
    19    30    33    1
    20    30    38    1
    21    31    34    1
    22    31    39    1
    23    32    35    1
    24    32    40    1
    25    41    43   ar
    26    15    19    2
    27    42    43   ar
    28    16    22    2
    29    17    12    1
    30    17    19   ar
    31    17    20   ar
    32    18    19   ar
    33    18    22   ar
    34    18    23    1
    35     9    10    1
    36     9    11    1
    37    10    12    1
    38    11     5    1
    39    33    34    1
    40    33    35    1
    41    34    36    1
    42    35    37    1
    43    37    43    1
    44    20    21   ar
    45    21    22   ar
@<TRIPOS>MOLECULE
*****
 43 45 0 0 0
SMALL
GASTEIGER

@<TRIPOS>ATOM
      1 P          22.8422   73.0725   -4.0034 P.3     1  UNL1        0.2189
      2 O          24.1853   72.1731   -4.0811 O.co2   1  UNL1       -0.4371
      3 O          23.0725   74.5553   -3.9912 O.2     1  UNL1       -0.5170
      4 O          22.0474   72.4744   -2.7273 O.3     1  UNL1       -0.3112
      5 C          21.2663   71.3067   -2.9038 C.3     1  UNL1        0.1811
      6 O          20.6056   70.6305   -0.6939 O.3     1  UNL1       -0.3308
      7 O          18.3895   72.6348   -0.9447 O.3     1  UNL1       -0.3794
      8 O          20.2143   73.9536    0.5938 O.3     1  UNL1       -0.3779
      9 C          19.7291   72.7028   -1.4341 C.3     1  UNL1        0.1713
     10 C          20.6908   72.9644   -0.2944 C.3     1  UNL1        0.1895
     11 C          20.1373   71.3058   -1.8813 C.3     1  UNL1        0.1764
     12 C          20.7903   71.5945    0.3549 C.3     1  UNL1        0.2383
     13 H          18.1064   73.5160   -0.6530 H       1  UNL1        0.2105
     14 H          20.1693   74.8068    0.1334 H       1  UNL1        0.2106
     15 O          21.3472   72.0802    3.0808 O.2     1  UNL1       -0.2464
     16 O          25.7229   70.7076    2.6198 O.2     1  UNL1       -0.2670
     17 N          22.0666   71.3727    0.9736 N.ar    1  UNL1       -0.2551
     18 N          23.5263   71.3971    2.8484 N.ar    1  UNL1       -0.2743
     19 C          22.2412   71.6490    2.3503 C.ar    1  UNL1        0.3323
     20 C          23.1275   70.8857    0.2198 C.ar    1  UNL1        0.0869
     21 C          24.3466   70.6504    0.7087 C.ar    1  UNL1        0.0795
     22 C          24.6131   70.9136    2.1380 C.ar    1  UNL1        0.2626
     23 H          23.6727   71.5838    3.8039 H       1  UNL1        0.1734
     24 O          21.9734   72.5364   -5.2566 O.3     1  UNL1       -0.2703
     25 P          21.0998   73.3316   -6.3603 P.3     1  UNL1        0.2208
     26 O          21.9492   73.1256   -7.7228 O.co2   1  UNL1       -0.4371
     27 O          20.8271   74.7664   -6.0126 O.2     1  UNL1       -0.5170
     28 O          19.7782   72.4293   -6.5640 O.3     1  UNL1       -0.2858
     29 O          19.2093   70.2724   -5.7681 O.3     1  UNL1       -0.3226
     30 O          17.4116   70.2971   -9.4878 O.3     1  UNL1       -0.3794
     31 O          20.0913   71.4046   -9.1307 O.3     1  UNL1       -0.3775
     32 O          15.8032   70.6179   -7.0876 O.3     1  UNL1       -0.3792
     33 C          17.8894   70.8634   -8.2675 C.3     1  UNL1        0.1718
     34 C          19.3972   70.6370   -8.1541 C.3     1  UNL1        0.1968
     35 C          17.1597   70.1777   -7.1103 C.3     1  UNL1        0.1723
     36 C          19.9053   71.0227   -6.7642 C.3     1  UNL1        0.2706
     37 C          17.8040   70.5134   -5.7684 C.3     1  UNL1        0.1830
     38 H          17.8614   70.7176  -10.2375 H       1  UNL1        0.2105
     39 H          19.7736   71.1652  -10.0151 H       1  UNL1        0.2106
     40 H          15.3816   70.4103   -7.9361 H       1  UNL1        0.2106
     41 O          16.6350   68.5507   -5.2366 O.co2   1  UNL1       -0.5466
     42 O          17.4786   69.7622   -3.4988 O.co2   1  UNL1       -0.5466
     43 C          17.3065   69.5982   -4.6973 C.2     1  UNL1        0.0799
@<TRIPOS>UNITY_ATOM_ATTR
2 1
charge -1
26 1
charge -1
41 1
charge -1
@<TRIPOS>BOND
     1     1     4    1
     2     1    24    1
     3     1     2    1
     4     1     3    2
     5    25    28    1
     6    25    24    1
     7    25    26    1
     8    25    27    2
     9     6    11    1
    10     6    12    1
    11    29    36    1
    12    29    37    1
    13     7     9    1
    14     7    13    1
    15     8    10    1
    16     8    14    1
    17     4     5    1
    18    28    36    1
    19    30    33    1
    20    30    38    1
    21    31    34    1
    22    31    39    1
    23    32    35    1
    24    32    40    1
    25    41    43   ar
    26    15    19    2
    27    42    43   ar
    28    16    22    2
    29    17    12    1
    30    17    19   ar
    31    17    20   ar
    32    18    19   ar
    33    18    22   ar
    34    18    23    1
    35     9    10    1
    36     9    11    1
    37    10    12    1
    38    11     5    1
    39    33    34    1
    40    33    35    1
    41    34    36    1
    42    35    37    1
    43    37    43    1
    44    20    21   ar
    45    21    22   ar
@<TRIPOS>MOLECULE
*****
 43 45 0 0 0
SMALL
GASTEIGER

@<TRIPOS>ATOM
      1 P          21.9261   72.4828   -5.7938 P.3     1  UNL1        0.2189
      2 O          21.3341   73.9160   -5.3307 O.co2   1  UNL1       -0.4371
      3 O          23.0735   72.5531   -6.7584 O.2     1  UNL1       -0.5170
      4 O          20.6238   71.6726   -6.3090 O.3     1  UNL1       -0.3112
      5 C          20.0500   72.0348   -7.5516 C.3     1  UNL1        0.1811
      6 O          18.8691   69.9840   -7.1306 O.3     1  UNL1       -0.3308
      7 O          18.1083   70.0440  -10.0305 O.3     1  UNL1       -0.3794
      8 O          15.8519   70.9600   -8.8034 O.3     1  UNL1       -0.3779
      9 C          18.2578   71.1276   -9.1129 C.3     1  UNL1        0.1713
     10 C          17.0881   71.1662   -8.1524 C.3     1  UNL1        0.1895
     11 C          19.4207   70.8011   -8.1858 C.3     1  UNL1        0.1764
     12 C          17.4351   70.0452   -7.1876 C.3     1  UNL1        0.2383
     13 H          17.3709   70.2298  -10.6334 H       1  UNL1        0.2105
     14 H          15.6764   71.7003   -9.4060 H       1  UNL1        0.2106
     15 O          16.3508   68.0442   -5.5152 O.2     1  UNL1       -0.2464
     16 O          15.5078   71.0663   -2.1388 O.2     1  UNL1       -0.2670
     17 N          16.9250   70.2814   -5.8667 N.ar    1  UNL1       -0.2551
     18 N          15.9311   69.5515   -3.8356 N.ar    1  UNL1       -0.2743
     19 C          16.4017   69.2068   -5.1094 C.ar    1  UNL1        0.3323
     20 C          16.9476   71.5645   -5.3337 C.ar    1  UNL1        0.0869
     21 C          16.4955   71.8776   -4.1178 C.ar    1  UNL1        0.0795
     22 C          15.9318   70.8128   -3.2623 C.ar    1  UNL1        0.2626
     23 H          15.5601   68.8203   -3.2904 H       1  UNL1        0.1734
     24 O          22.2707   71.7614   -4.3890 O.3     1  UNL1       -0.2703
     25 P          23.5142   71.9536   -3.3739 P.3     1  UNL1        0.2208
     26 O          24.4053   73.0977   -4.0932 O.co2   1  UNL1       -0.4371
     27 O          24.2619   70.6879   -3.0694 O.2     1  UNL1       -0.5170
     28 O          22.8796   72.6835   -2.0828 O.3     1  UNL1       -0.2858
     29 O          22.9059   71.2033   -0.2342 O.3     1  UNL1       -0.3226
     30 O          21.0026   74.5054    1.3600 O.3     1  UNL1       -0.3794
     31 O          20.3554   73.5805   -1.3345 O.3     1  UNL1       -0.3775
     32 O          23.7764   73.9537    2.0328 O.3     1  UNL1       -0.3792
     33 C          21.9153   73.8118    0.5092 C.3     1  UNL1        0.1718
     34 C          21.1425   72.8540   -0.3978 C.3     1  UNL1        0.1968
     35 C          22.8909   73.0347    1.3959 C.3     1  UNL1        0.1723
     36 C          22.0961   71.9313   -1.1582 C.3     1  UNL1        0.2706
     37 C          23.7185   72.0457    0.5800 C.3     1  UNL1        0.1830
     38 H          20.3726   75.0066    0.8184 H       1  UNL1        0.2105
     39 H          19.7482   74.1682   -0.8589 H       1  UNL1        0.2106
     40 H          23.2621   74.5889    2.5553 H       1  UNL1        0.2106
     41 O          23.7354   70.9161    2.6355 O.co2   1  UNL1       -0.5466
     42 O          25.4598   70.4965    1.2039 O.co2   1  UNL1       -0.5466
     43 C          24.4178   71.0745    1.4745 C.2     1  UNL1        0.0799
@<TRIPOS>UNITY_ATOM_ATTR
2 1
charge -1
26 1
charge -1
41 1
charge -1
@<TRIPOS>BOND
     1     1     4    1
     2     1    24    1
     3     1     2    1
     4     1     3    2
     5    25    28    1
     6    25    24    1
     7    25    26    1
     8    25    27    2
     9     6    11    1
    10     6    12    1
    11    29    36    1
    12    29    37    1
    13     7     9    1
    14     7    13    1
    15     8    10    1
    16     8    14    1
    17     4     5    1
    18    28    36    1
    19    30    33    1
    20    30    38    1
    21    31    34    1
    22    31    39    1
    23    32    35    1
    24    32    40    1
    25    41    43   ar
    26    15    19    2
    27    42    43   ar
    28    16    22    2
    29    17    12    1
    30    17    19   ar
    31    17    20   ar
    32    18    19   ar
    33    18    22   ar
    34    18    23    1
    35     9    10    1
    36     9    11    1
    37    10    12    1
    38    11     5    1
    39    33    34    1
    40    33    35    1
    41    34    36    1
    42    35    37    1
    43    37    43    1
    44    20    21   ar
    45    21    22   ar
@<TRIPOS>MOLECULE
*****
 43 45 0 0 0
SMALL
GASTEIGER

@<TRIPOS>ATOM
      1 P          20.3397   73.9103   -2.2193 P.3     1  UNL1        0.2189
      2 O          19.2341   73.5692   -1.0879 O.co2   1  UNL1       -0.4371
      3 O          20.8885   75.3060   -2.1684 O.2     1  UNL1       -0.5170
      4 O          19.6199   73.4884   -3.6056 O.3     1  UNL1       -0.3112
      5 C          19.3836   72.1148   -3.8540 C.3     1  UNL1        0.1811
      6 O          17.4210   72.0653   -5.2408 O.3     1  UNL1       -0.3308
      7 O          16.1459   70.4530   -3.0577 O.3     1  UNL1       -0.3794
      8 O          16.8232   68.5479   -4.8875 O.3     1  UNL1       -0.3779
      9 C          17.4973   70.4410   -3.5185 C.3     1  UNL1        0.1713
     10 C          17.5894   69.7339   -4.8540 C.3     1  UNL1        0.1895
     11 C          17.8809   71.8678   -3.8863 C.3     1  UNL1        0.1764
     12 C          17.0678   70.7941   -5.8089 C.3     1  UNL1        0.2383
     13 H          15.8781   69.5520   -2.8167 H       1  UNL1        0.2105
     14 H          17.1954   67.9049   -4.2631 H       1  UNL1        0.2106
     15 O          15.5858   70.5875   -8.2042 O.2     1  UNL1       -0.2464
     16 O          19.4109   70.3948  -10.7685 O.2     1  UNL1       -0.2670
     17 N          17.6510   70.6887   -7.1164 N.ar    1  UNL1       -0.2551
     18 N          17.4924   70.4907   -9.4790 N.ar    1  UNL1       -0.2743
     19 C          16.8172   70.5896   -8.2553 C.ar    1  UNL1        0.3323
     20 C          19.0330   70.6859   -7.2612 C.ar    1  UNL1        0.0869
     21 C          19.6620   70.5911   -8.4343 C.ar    1  UNL1        0.0795
     22 C          18.8641   70.4830   -9.6733 C.ar    1  UNL1        0.2626
     23 H          16.9330   70.4186  -10.2860 H       1  UNL1        0.1734
     24 O          21.4415   72.7457   -2.0128 O.3     1  UNL1       -0.2703
     25 P          21.5631   71.5862   -0.8928 P.3     1  UNL1        0.2208
     26 O          23.0199   70.9429   -1.1830 O.co2   1  UNL1       -0.4371
     27 O          20.4355   70.5951   -0.9074 O.2     1  UNL1       -0.5170
     28 O          21.7388   72.3799    0.5007 O.3     1  UNL1       -0.2858
     29 O          22.9000   70.9845    2.0217 O.3     1  UNL1       -0.3226
     30 O          22.2112   74.3459    4.3225 O.3     1  UNL1       -0.3794
     31 O          20.1224   73.2976    2.5697 O.3     1  UNL1       -0.3775
     32 O          24.8598   73.8382    3.2372 O.3     1  UNL1       -0.3792
     33 C          22.4633   73.6191    3.1200 C.3     1  UNL1        0.1718
     34 C          21.3330   72.6177    2.8807 C.3     1  UNL1        0.1968
     35 C          23.7976   72.8872    3.2807 C.3     1  UNL1        0.1723
     36 C          21.6786   71.6663    1.7343 C.3     1  UNL1        0.2706
     37 C          24.0109   71.8665    2.1665 C.3     1  UNL1        0.1830
     38 H          21.3679   74.8192    4.2437 H       1  UNL1        0.2105
     39 H          19.8972   73.9033    3.2928 H       1  UNL1        0.2106
     40 H          24.7359   74.4938    3.9413 H       1  UNL1        0.2106
     41 O          26.3078   71.6146    2.5694 O.co2   1  UNL1       -0.5466
     42 O          25.0175   69.7391    2.6977 O.co2   1  UNL1       -0.5466
     43 C          25.1333   70.9399    2.5038 C.2     1  UNL1        0.0799
@<TRIPOS>UNITY_ATOM_ATTR
2 1
charge -1
26 1
charge -1
41 1
charge -1
@<TRIPOS>BOND
     1     1     4    1
     2     1    24    1
     3     1     2    1
     4     1     3    2
     5    25    28    1
     6    25    24    1
     7    25    26    1
     8    25    27    2
     9     6    11    1
    10     6    12    1
    11    29    36    1
    12    29    37    1
    13     7     9    1
    14     7    13    1
    15     8    10    1
    16     8    14    1
    17     4     5    1
    18    28    36    1
    19    30    33    1
    20    30    38    1
    21    31    34    1
    22    31    39    1
    23    32    35    1
    24    32    40    1
    25    41    43   ar
    26    15    19    2
    27    42    43   ar
    28    16    22    2
    29    17    12    1
    30    17    19   ar
    31    17    20   ar
    32    18    19   ar
    33    18    22   ar
    34    18    23    1
    35     9    10    1
    36     9    11    1
    37    10    12    1
    38    11     5    1
    39    33    34    1
    40    33    35    1
    41    34    36    1
    42    35    37    1
    43    37    43    1
    44    20    21   ar
    45    21    22   ar
@<TRIPOS>MOLECULE
*****
 43 45 0 0 0
SMALL
GASTEIGER

@<TRIPOS>ATOM
      1 P          20.8033   72.9853   -3.6321 P.3     1  UNL1        0.2189
      2 O          20.0588   73.6374   -2.3517 O.co2   1  UNL1       -0.4371
      3 O          21.4902   73.9682   -4.5341 O.2     1  UNL1       -0.5170
      4 O          19.6585   72.0762   -4.3257 O.3     1  UNL1       -0.3112
      5 C          19.0141   71.0876   -3.5436 C.3     1  UNL1        0.1811
      6 O          17.2788   71.6605   -5.1050 O.3     1  UNL1       -0.3308
      7 O          15.4300   70.0919   -3.3407 O.3     1  UNL1       -0.3794
      8 O          15.9343   68.3479   -5.3754 O.3     1  UNL1       -0.3779
      9 C          16.7983   69.8432   -3.6637 C.3     1  UNL1        0.1713
     10 C          16.9158   69.3193   -5.0794 C.3     1  UNL1        0.1895
     11 C          17.5096   71.1859   -3.7608 C.3     1  UNL1        0.1764
     12 C          16.7496   70.5872   -5.8996 C.3     1  UNL1        0.2383
     13 H          14.9549   69.2484   -3.2732 H       1  UNL1        0.2105
     14 H          16.0834   67.5604   -4.8279 H       1  UNL1        0.2106
     15 O          15.5306   70.7213   -8.4437 O.2     1  UNL1       -0.2464
     16 O          19.5850   70.3659  -10.6070 O.2     1  UNL1       -0.2670
     17 N          17.4630   70.5321   -7.1442 N.ar    1  UNL1       -0.2551
     18 N          17.5510   70.5432   -9.5187 N.ar    1  UNL1       -0.2743
     19 C          16.7554   70.6076   -8.3672 C.ar    1  UNL1        0.3323
     20 C          18.8469   70.4064   -7.1455 C.ar    1  UNL1        0.0869
     21 C          19.5915   70.3464   -8.2512 C.ar    1  UNL1        0.0795
     22 C          18.9299   70.4176   -9.5705 C.ar    1  UNL1        0.2626
     23 H          17.0807   70.5917  -10.3823 H       1  UNL1        0.1734
     24 O          21.7826   71.8876   -2.9622 O.3     1  UNL1       -0.2703
     25 P          23.3274   71.9874   -2.4959 P.3     1  UNL1        0.2208
     26 O          23.7807   73.4475   -3.0277 O.co2   1  UNL1       -0.4371
     27 O          24.1906   70.8580   -2.9787 O.2     1  UNL1       -0.5170
     28 O          23.2614   72.1409   -0.8913 O.3     1  UNL1       -0.2858
     29 O          24.4803   70.9667    0.7653 O.3     1  UNL1       -0.3226
     30 O          20.9446   71.7802    2.7416 O.3     1  UNL1       -0.3794
     31 O          20.9160   70.9076   -0.0463 O.3     1  UNL1       -0.3775
     32 O          23.3413   73.3090    3.3496 O.3     1  UNL1       -0.3792
     33 C          22.0046   72.0187    1.8155 C.3     1  UNL1        0.1718
     34 C          22.0611   70.8791    0.7978 C.3     1  UNL1        0.1968
     35 C          23.3139   72.0932    2.6043 C.3     1  UNL1        0.1723
     36 C          23.3192   70.9789   -0.0660 C.3     1  UNL1        0.2706
     37 C          24.5254   72.0620    1.6771 C.3     1  UNL1        0.1830
     38 H          20.1023   71.7289    2.2629 H       1  UNL1        0.2105
     39 H          20.1140   70.8449    0.4953 H       1  UNL1        0.2106
     40 H          22.5752   73.3415    3.9436 H       1  UNL1        0.2106
     41 O          26.2679   72.9581    2.9664 O.co2   1  UNL1       -0.5466
     42 O          26.2952   70.7075    2.6017 O.co2   1  UNL1       -0.5466
     43 C          25.7781   71.8040    2.4496 C.2     1  UNL1        0.0799
@<TRIPOS>UNITY_ATOM_ATTR
2 1
charge -1
26 1
charge -1
41 1
charge -1
@<TRIPOS>BOND
     1     1     4    1
     2     1    24    1
     3     1     2    1
     4     1     3    2
     5    25    28    1
     6    25    24    1
     7    25    26    1
     8    25    27    2
     9     6    11    1
    10     6    12    1
    11    29    36    1
    12    29    37    1
    13     7     9    1
    14     7    13    1
    15     8    10    1
    16     8    14    1
    17     4     5    1
    18    28    36    1
    19    30    33    1
    20    30    38    1
    21    31    34    1
    22    31    39    1
    23    32    35    1
    24    32    40    1
    25    41    43   ar
    26    15    19    2
    27    42    43   ar
    28    16    22    2
    29    17    12    1
    30    17    19   ar
    31    17    20   ar
    32    18    19   ar
    33    18    22   ar
    34    18    23    1
    35     9    10    1
    36     9    11    1
    37    10    12    1
    38    11     5    1
    39    33    34    1
    40    33    35    1
    41    34    36    1
    42    35    37    1
    43    37    43    1
    44    20    21   ar
    45    21    22   ar
@<TRIPOS>MOLECULE
*****
 43 45 0 0 0
SMALL
GASTEIGER

@<TRIPOS>ATOM
      1 P          22.9428   75.4179   -3.1161 P.3     1  UNL1        0.2189
      2 O          24.4725   75.0859   -3.5269 O.co2   1  UNL1       -0.4371
      3 O          22.5627   76.8668   -3.2067 O.2     1  UNL1       -0.5170
      4 O          22.7758   74.7375   -1.6577 O.3     1  UNL1       -0.3112
      5 C          21.5984   73.9993   -1.3868 C.3     1  UNL1        0.1811
      6 O          23.2184   72.2281   -1.2602 O.3     1  UNL1       -0.3308
      7 O          20.9034   70.3425   -1.5382 O.3     1  UNL1       -0.3794
      8 O          21.4154   70.2668    1.1391 O.3     1  UNL1       -0.3779
      9 C          20.9736   71.5921   -0.8510 C.3     1  UNL1        0.1713
     10 C          21.7607   71.4403    0.4334 C.3     1  UNL1        0.1895
     11 C          21.8633   72.5246   -1.6616 C.3     1  UNL1        0.1764
     12 C          23.1922   71.4172   -0.0748 C.3     1  UNL1        0.2383
     13 H          20.3401   69.7299   -1.0392 H       1  UNL1        0.2105
     14 H          20.4954   70.3304    1.4418 H       1  UNL1        0.2106
     15 O          24.7007   69.8589    1.7343 O.2     1  UNL1       -0.2464
     16 O          26.7251   73.5853    3.5398 O.2     1  UNL1       -0.2670
     17 N          24.1210   71.9544    0.8790 N.ar    1  UNL1       -0.2551
     18 N          25.7068   71.7164    2.6325 N.ar    1  UNL1       -0.2743
     19 C          24.8283   71.0847    1.7424 C.ar    1  UNL1        0.3323
     20 C          24.3248   73.3270    0.9513 C.ar    1  UNL1        0.0869
     21 C          25.1656   73.9145    1.8050 C.ar    1  UNL1        0.0795
     22 C          25.9429   73.0773    2.7422 C.ar    1  UNL1        0.2626
     23 H          26.2090   71.1317    3.2451 H       1  UNL1        0.1734
     24 O          22.0884   74.4364   -4.0750 O.3     1  UNL1       -0.2703
     25 P          22.5127   73.6141   -5.4007 P.3     1  UNL1        0.2208
     26 O          23.4482   72.4290   -4.8171 O.co2   1  UNL1       -0.4371
     27 O          23.1655   74.4514   -6.4621 O.2     1  UNL1       -0.5170
     28 O          21.1605   72.8710   -5.8716 O.3     1  UNL1       -0.2858
     29 O          20.4877   70.6619   -5.3459 O.3     1  UNL1       -0.3226
     30 O          18.6184   71.2675   -8.9800 O.3     1  UNL1       -0.3794
     31 O          21.3628   72.1751   -8.5569 O.3     1  UNL1       -0.3775
     32 O          17.0801   71.3570   -6.5149 O.3     1  UNL1       -0.3792
     33 C          19.1522   71.6435   -7.7104 C.3     1  UNL1        0.1718
     34 C          20.6468   71.3245   -7.6690 C.3     1  UNL1        0.1968
     35 C          18.4089   70.8522   -6.6318 C.3     1  UNL1        0.1723
     36 C          21.2042   71.4978   -6.2554 C.3     1  UNL1        0.2706
     37 C          19.0984   70.9751   -5.2761 C.3     1  UNL1        0.1830
     38 H          19.0757   71.7578   -9.6812 H       1  UNL1        0.2105
     39 H          21.0141   72.0704   -9.4558 H       1  UNL1        0.2106
     40 H          16.6302   71.2847   -7.3712 H       1  UNL1        0.2106
     41 O          17.2181   70.0023   -4.2664 O.co2   1  UNL1       -0.5466
     42 O          19.2601   69.1810   -3.6710 O.co2   1  UNL1       -0.5466
     43 C          18.5723   69.9556   -4.3190 C.2     1  UNL1        0.0799
@<TRIPOS>UNITY_ATOM_ATTR
2 1
charge -1
26 1
charge -1
41 1
charge -1
@<TRIPOS>BOND
     1     1     4    1
     2     1    24    1
     3     1     2    1
     4     1     3    2
     5    25    28    1
     6    25    24    1
     7    25    26    1
     8    25    27    2
     9     6    11    1
    10     6    12    1
    11    29    36    1
    12    29    37    1
    13     7     9    1
    14     7    13    1
    15     8    10    1
    16     8    14    1
    17     4     5    1
    18    28    36    1
    19    30    33    1
    20    30    38    1
    21    31    34    1
    22    31    39    1
    23    32    35    1
    24    32    40    1
    25    41    43   ar
    26    15    19    2
    27    42    43   ar
    28    16    22    2
    29    17    12    1
    30    17    19   ar
    31    17    20   ar
    32    18    19   ar
    33    18    22   ar
    34    18    23    1
    35     9    10    1
    36     9    11    1
    37    10    12    1
    38    11     5    1
    39    33    34    1
    40    33    35    1
    41    34    36    1
    42    35    37    1
    43    37    43    1
    44    20    21   ar
    45    21    22   ar
@<TRIPOS>MOLECULE
*****
 43 45 0 0 0
SMALL
GASTEIGER

@<TRIPOS>ATOM
      1 P          21.8981   72.4580   -5.7509 P.3     1  UNL1        0.2189
      2 O          21.2477   73.8689   -5.2978 O.co2   1  UNL1       -0.4371
      3 O          23.0861   72.5712   -6.6607 O.2     1  UNL1       -0.5170
      4 O          20.6426   71.6215   -6.3356 O.3     1  UNL1       -0.3112
      5 C          20.1248   71.9775   -7.6043 C.3     1  UNL1        0.1811
      6 O          18.9142   69.9462   -7.1730 O.3     1  UNL1       -0.3308
      7 O          18.1248   70.0220  -10.0648 O.3     1  UNL1       -0.3794
      8 O          15.8967   70.9741   -8.8138 O.3     1  UNL1       -0.3779
      9 C          18.3018   71.1019   -9.1478 C.3     1  UNL1        0.1713
     10 C          17.1428   71.1590   -8.1753 C.3     1  UNL1        0.1895
     11 C          19.4685   70.7551   -8.2331 C.3     1  UNL1        0.1764
     12 C          17.4810   70.0313   -7.2152 C.3     1  UNL1        0.2383
     13 H          17.3845   70.2207  -10.6599 H       1  UNL1        0.2105
     14 H          15.7274   71.7178   -9.4139 H       1  UNL1        0.2106
     15 O          16.2901   68.0678   -5.5710 O.2     1  UNL1       -0.2464
     16 O          15.6275   71.0778   -2.1440 O.2     1  UNL1       -0.2670
     17 N          16.9884   70.2746   -5.8889 N.ar    1  UNL1       -0.2551
     18 N          15.9603   69.5691   -3.8661 N.ar    1  UNL1       -0.2743
     19 C          16.4074   69.2190   -5.1470 C.ar    1  UNL1        0.3323
     20 C          17.0847   71.5456   -5.3356 C.ar    1  UNL1        0.0869
     21 C          16.6541   71.8640   -4.1133 C.ar    1  UNL1        0.0795
     22 C          16.0336   70.8190   -3.2729 C.ar    1  UNL1        0.2626
     23 H          15.5502   68.8513   -3.3314 H       1  UNL1        0.1734
     24 O          22.1970   71.7267   -4.3408 O.3     1  UNL1       -0.2703
     25 P          23.4033   71.9166   -3.2813 P.3     1  UNL1        0.2208
     26 O          24.1928   73.2112   -3.8480 O.co2   1  UNL1       -0.4371
     27 O          24.2622   70.6985   -3.1011 O.2     1  UNL1       -0.5170
     28 O          22.6858   72.4354   -1.9328 O.3     1  UNL1       -0.2858
     29 O          22.8627   74.2666   -0.4413 O.3     1  UNL1       -0.3226
     30 O          22.6148   71.0757    2.1710 O.3     1  UNL1       -0.3794
     31 O          24.2612   70.8949   -0.2354 O.3     1  UNL1       -0.3775
     32 O          20.3136   72.8024    1.7542 O.3     1  UNL1       -0.3792
     33 C          22.3563   71.7967    0.9663 C.3     1  UNL1        0.1718
     34 C          23.6765   72.0956    0.2556 C.3     1  UNL1        0.1968
     35 C          21.6452   73.0997    1.3384 C.3     1  UNL1        0.1723
     36 C          23.4630   73.0595   -0.9124 C.3     1  UNL1        0.2706
     37 C          21.5834   74.0587    0.1530 C.3     1  UNL1        0.1830
     38 H          23.0665   70.2435    1.9594 H       1  UNL1        0.2105
     39 H          24.3992   70.2785    0.5004 H       1  UNL1        0.2106
     40 H          20.3388   72.1927    2.5081 H       1  UNL1        0.2106
     41 O          21.4628   76.3428   -0.3664 O.co2   1  UNL1       -0.5466
     42 O          20.6996   75.7007    1.6841 O.co2   1  UNL1       -0.5466
     43 C          21.1943   75.4302    0.6001 C.2     1  UNL1        0.0799
@<TRIPOS>UNITY_ATOM_ATTR
2 1
charge -1
26 1
charge -1
41 1
charge -1
@<TRIPOS>BOND
     1     1     4    1
     2     1    24    1
     3     1     2    1
     4     1     3    2
     5    25    28    1
     6    25    24    1
     7    25    26    1
     8    25    27    2
     9     6    11    1
    10     6    12    1
    11    29    36    1
    12    29    37    1
    13     7     9    1
    14     7    13    1
    15     8    10    1
    16     8    14    1
    17     4     5    1
    18    28    36    1
    19    30    33    1
    20    30    38    1
    21    31    34    1
    22    31    39    1
    23    32    35    1
    24    32    40    1
    25    41    43   ar
    26    15    19    2
    27    42    43   ar
    28    16    22    2
    29    17    12    1
    30    17    19   ar
    31    17    20   ar
    32    18    19   ar
    33    18    22   ar
    34    18    23    1
    35     9    10    1
    36     9    11    1
    37    10    12    1
    38    11     5    1
    39    33    34    1
    40    33    35    1
    41    34    36    1
    42    35    37    1
    43    37    43    1
    44    20    21   ar
    45    21    22   ar
@<TRIPOS>MOLECULE
*****
 43 45 0 0 0
SMALL
GASTEIGER

@<TRIPOS>ATOM
      1 P          23.4862   72.3366   -3.4474 P.3     1  UNL1        0.2189
      2 O          24.0828   70.8554   -3.1848 O.co2   1  UNL1       -0.4371
      3 O          24.4957   73.3584   -3.8818 O.2     1  UNL1       -0.5170
      4 O          22.6817   72.6784   -2.0858 O.3     1  UNL1       -0.3112
      5 C          23.4119   72.7839   -0.8774 C.3     1  UNL1        0.1811
      6 O          24.4818   71.2699    0.6526 O.3     1  UNL1       -0.3308
      7 O          21.7413   70.1853    1.2045 O.3     1  UNL1       -0.3794
      8 O          22.1836   71.8073    3.3515 O.3     1  UNL1       -0.3779
      9 C          22.1444   71.5285    0.9364 C.3     1  UNL1        0.1713
     10 C          22.8456   72.1160    2.1427 C.3     1  UNL1        0.1895
     11 C          23.2647   71.4859   -0.0939 C.3     1  UNL1        0.1764
     12 C          24.2211   71.4779    2.0498 C.3     1  UNL1        0.2383
     13 H          21.0260   70.1869    1.8603 H       1  UNL1        0.2105
     14 H          21.3133   72.2367    3.3623 H       1  UNL1        0.2106
     15 O          26.9057   70.6758    2.4052 O.2     1  UNL1       -0.2464
     16 O          28.0879   74.7703    4.1607 O.2     1  UNL1       -0.2670
     17 N          25.2513   72.3143    2.5975 N.ar    1  UNL1       -0.2551
     18 N          27.4917   72.7155    3.2802 N.ar    1  UNL1       -0.2743
     19 C          26.5681   71.8147    2.7339 C.ar    1  UNL1        0.3323
     20 C          24.9539   73.6134    2.9911 C.ar    1  UNL1        0.0869
     21 C          25.8450   74.4604    3.5101 C.ar    1  UNL1        0.0795
     22 C          27.2432   74.0164    3.6870 C.ar    1  UNL1        0.2626
     23 H          28.4146   72.3896    3.3867 H       1  UNL1        0.1734
     24 O          22.3003   72.0667   -4.5121 O.3     1  UNL1       -0.2703
     25 P          21.8283   72.9062   -5.8106 P.3     1  UNL1        0.2208
     26 O          22.8774   72.4418   -6.9526 O.co2   1  UNL1       -0.4371
     27 O          21.7659   74.3906   -5.5950 O.2     1  UNL1       -0.5170
     28 O          20.4282   72.2335   -6.2461 O.3     1  UNL1       -0.2858
     29 O          19.7962   70.0792   -5.4919 O.3     1  UNL1       -0.3226
     30 O          17.3802   70.5505   -8.8099 O.3     1  UNL1       -0.3794
     31 O          20.1779   71.3883   -8.8841 O.3     1  UNL1       -0.3775
     32 O          16.2623   70.8228   -6.1402 O.3     1  UNL1       -0.3792
     33 C          18.1207   70.9761   -7.6659 C.3     1  UNL1        0.1718
     34 C          19.5944   70.6106   -7.8452 C.3     1  UNL1        0.1968
     35 C          17.5424   70.2688   -6.4383 C.3     1  UNL1        0.1723
     36 C          20.3765   70.8410   -6.5513 C.3     1  UNL1        0.2706
     37 C          18.4443   70.4414   -5.2196 C.3     1  UNL1        0.1830
     38 H          17.7300   70.9871   -9.6025 H       1  UNL1        0.2105
     39 H          19.6864   71.2471   -9.7081 H       1  UNL1        0.2106
     40 H          15.6786   70.7196   -6.9080 H       1  UNL1        0.2106
     41 O          17.0727   68.6586   -4.5549 O.co2   1  UNL1       -0.5466
     42 O          18.5504   69.4637   -3.0163 O.co2   1  UNL1       -0.5466
     43 C          18.0552   69.4926   -4.1330 C.2     1  UNL1        0.0799
@<TRIPOS>UNITY_ATOM_ATTR
2 1
charge -1
26 1
charge -1
41 1
charge -1
@<TRIPOS>BOND
     1     1     4    1
     2     1    24    1
     3     1     2    1
     4     1     3    2
     5    25    28    1
     6    25    24    1
     7    25    26    1
     8    25    27    2
     9     6    11    1
    10     6    12    1
    11    29    36    1
    12    29    37    1
    13     7     9    1
    14     7    13    1
    15     8    10    1
    16     8    14    1
    17     4     5    1
    18    28    36    1
    19    30    33    1
    20    30    38    1
    21    31    34    1
    22    31    39    1
    23    32    35    1
    24    32    40    1
    25    41    43   ar
    26    15    19    2
    27    42    43   ar
    28    16    22    2
    29    17    12    1
    30    17    19   ar
    31    17    20   ar
    32    18    19   ar
    33    18    22   ar
    34    18    23    1
    35     9    10    1
    36     9    11    1
    37    10    12    1
    38    11     5    1
    39    33    34    1
    40    33    35    1
    41    34    36    1
    42    35    37    1
    43    37    43    1
    44    20    21   ar
    45    21    22   ar
@<TRIPOS>MOLECULE
*****
 43 45 0 0 0
SMALL
GASTEIGER

@<TRIPOS>ATOM
      1 P          22.8962   74.8064   -1.4069 P.3     1  UNL1        0.2189
      2 O          23.8815   73.5954   -0.9805 O.co2   1  UNL1       -0.4371
      3 O          23.5783   76.1189   -1.6598 O.2     1  UNL1       -0.5170
      4 O          21.7659   74.8135   -0.2492 O.3     1  UNL1       -0.3112
      5 C          22.1716   74.6175    1.0930 C.3     1  UNL1        0.1811
      6 O          22.6966   72.3021    1.4682 O.3     1  UNL1       -0.3308
      7 O          20.2909   72.2388    3.2571 O.3     1  UNL1       -0.3794
      8 O          22.3501   72.4311    5.0343 O.3     1  UNL1       -0.3779
      9 C          21.2360   73.2888    3.0506 C.3     1  UNL1        0.1713
     10 C          22.5437   72.9599    3.7392 C.3     1  UNL1        0.1895
     11 C          21.6376   73.2773    1.5819 C.3     1  UNL1        0.1764
     12 C          23.1594   71.9532    2.7825 C.3     1  UNL1        0.2383
     13 H          20.0194   72.2263    4.1886 H       1  UNL1        0.2105
     14 H          21.9564   73.1101    5.6053 H       1  UNL1        0.2106
     15 O          24.8172   69.7338    2.2324 O.2     1  UNL1       -0.2464
     16 O          28.6525   72.2098    2.8681 O.2     1  UNL1       -0.2670
     17 N          24.5944   71.9899    2.7972 N.ar    1  UNL1       -0.2551
     18 N          26.7258   70.9689    2.5506 N.ar    1  UNL1       -0.2743
     19 C          25.3335   70.8188    2.5067 C.ar    1  UNL1        0.3323
     20 C          25.2548   73.1757    3.0952 C.ar    1  UNL1        0.0869
     21 C          26.5826   73.3032    3.1330 C.ar    1  UNL1        0.0795
     22 C          27.4283   72.1269    2.8424 C.ar    1  UNL1        0.2626
     23 H          27.2617   70.1667    2.3538 H       1  UNL1        0.1734
     24 O          22.1074   74.2009   -2.6812 O.3     1  UNL1       -0.2703
     25 P          22.6189   73.8358   -4.1708 P.3     1  UNL1        0.2208
     26 O          23.7034   72.6623   -3.9122 O.co2   1  UNL1       -0.4371
     27 O          23.1489   75.0082   -4.9444 O.2     1  UNL1       -0.5170
     28 O          21.3672   73.0885   -4.8616 O.3     1  UNL1       -0.2858
     29 O          20.2847   70.9871   -5.0085 O.3     1  UNL1       -0.3226
     30 O          21.0288   71.8292   -8.9841 O.3     1  UNL1       -0.3794
     31 O          23.0562   72.3696   -6.9513 O.3     1  UNL1       -0.3775
     32 O          18.3441   72.1218   -7.9083 O.3     1  UNL1       -0.3792
     33 C          20.7361   72.1331   -7.6203 C.3     1  UNL1        0.1718
     34 C          21.8669   71.6210   -6.7278 C.3     1  UNL1        0.1968
     35 C          19.4178   71.4470   -7.2554 C.3     1  UNL1        0.1723
     36 C          21.4857   71.7211   -5.2502 C.3     1  UNL1        0.2706
     37 C          19.1708   71.4798   -5.7499 C.3     1  UNL1        0.1830
     38 H          21.8627   72.2547   -9.2386 H       1  UNL1        0.2105
     39 H          23.3037   72.3108   -7.8871 H       1  UNL1        0.2106
     40 H          18.4891   72.1083   -8.8672 H       1  UNL1        0.2106
     41 O          18.2926   70.0190   -4.1385 O.co2   1  UNL1       -0.5466
     42 O          17.1074   70.2710   -6.0701 O.co2   1  UNL1       -0.5466
     43 C          18.0736   70.5389   -5.3717 C.2     1  UNL1        0.0799
@<TRIPOS>UNITY_ATOM_ATTR
2 1
charge -1
26 1
charge -1
41 1
charge -1
@<TRIPOS>BOND
     1     1     4    1
     2     1    24    1
     3     1     2    1
     4     1     3    2
     5    25    28    1
     6    25    24    1
     7    25    26    1
     8    25    27    2
     9     6    11    1
    10     6    12    1
    11    29    36    1
    12    29    37    1
    13     7     9    1
    14     7    13    1
    15     8    10    1
    16     8    14    1
    17     4     5    1
    18    28    36    1
    19    30    33    1
    20    30    38    1
    21    31    34    1
    22    31    39    1
    23    32    35    1
    24    32    40    1
    25    41    43   ar
    26    15    19    2
    27    42    43   ar
    28    16    22    2
    29    17    12    1
    30    17    19   ar
    31    17    20   ar
    32    18    19   ar
    33    18    22   ar
    34    18    23    1
    35     9    10    1
    36     9    11    1
    37    10    12    1
    38    11     5    1
    39    33    34    1
    40    33    35    1
    41    34    36    1
    42    35    37    1
    43    37    43    1
    44    20    21   ar
    45    21    22   ar
@<TRIPOS>MOLECULE
*****
 43 45 0 0 0
SMALL
GASTEIGER

@<TRIPOS>ATOM
      1 P          20.6795   71.9767   -2.3048 P.3     1  UNL1        0.2189
      2 O          20.6687   70.9231   -1.0765 O.co2   1  UNL1       -0.4371
      3 O          19.7595   73.1508   -2.1405 O.2     1  UNL1       -0.5170
      4 O          20.4172   71.0557   -3.6090 O.3     1  UNL1       -0.3112
      5 C          19.5433   69.9482   -3.4899 C.3     1  UNL1        0.1811
      6 O          17.9167   71.2398   -4.6997 O.3     1  UNL1       -0.3308
      7 O          15.8447   69.8188   -3.0629 O.3     1  UNL1       -0.3794
      8 O          15.7483   68.4816   -5.4375 O.3     1  UNL1       -0.3779
      9 C          17.0785   69.3251   -3.5851 C.3     1  UNL1        0.1713
     10 C          16.9643   69.1037   -5.0785 C.3     1  UNL1        0.1895
     11 C          18.1043   70.4476   -3.5070 C.3     1  UNL1        0.1764
     12 C          17.0779   70.5197   -5.6169 C.3     1  UNL1        0.2383
     13 H          15.1735   69.1191   -3.1024 H       1  UNL1        0.2105
     14 H          15.7244   67.5830   -5.0714 H       1  UNL1        0.2106
     15 O          15.6236   70.3634   -8.0329 O.2     1  UNL1       -0.2464
     16 O          19.4549   70.6963  -10.5734 O.2     1  UNL1       -0.2670
     17 N          17.6702   70.5631   -6.9239 N.ar    1  UNL1       -0.2551
     18 N          17.5333   70.5283   -9.2959 N.ar    1  UNL1       -0.2743
     19 C          16.8501   70.4766   -8.0737 C.ar    1  UNL1        0.3323
     20 C          19.0474   70.6915   -7.0574 C.ar    1  UNL1        0.0869
     21 C          19.6842   70.7395   -8.2291 C.ar    1  UNL1        0.0795
     22 C          18.9008   70.6547   -9.4791 C.ar    1  UNL1        0.2626
     23 H          16.9837   70.4679  -10.1105 H       1  UNL1        0.1734
     24 O          22.2438   72.3607   -2.4398 O.3     1  UNL1       -0.2703
     25 P          23.0591   73.0887   -3.6310 P.3     1  UNL1        0.2208
     26 O          21.9014   73.4545   -4.7017 O.co2   1  UNL1       -0.4371
     27 O          24.1865   72.2726   -4.1939 O.2     1  UNL1       -0.5170
     28 O          23.5054   74.5101   -3.0124 O.3     1  UNL1       -0.2858
     29 O          25.1988   75.3412   -4.4445 O.3     1  UNL1       -0.3226
     30 O          24.8019   78.4307   -1.7305 O.3     1  UNL1       -0.3794
     31 O          24.7878   75.6533   -0.8250 O.3     1  UNL1       -0.3775
     32 O          23.6805   78.6812   -4.4009 O.3     1  UNL1       -0.3792
     33 C          24.3613   77.3301   -2.5257 C.3     1  UNL1        0.1718
     34 C          25.1413   76.0737   -2.1377 C.3     1  UNL1        0.1968
     35 C          24.6102   77.6785   -3.9949 C.3     1  UNL1        0.1723
     36 C          24.8637   74.9329   -3.1177 C.3     1  UNL1        0.2706
     37 C          24.4352   76.4582   -4.8943 C.3     1  UNL1        0.1830
     38 H          24.6536   78.2320   -0.7926 H       1  UNL1        0.2105
     39 H          24.9612   76.3724   -0.1980 H       1  UNL1        0.2106
     40 H          23.7814   79.4633   -3.8362 H       1  UNL1        0.2106
     41 O          25.7682   77.8306   -6.2512 O.co2   1  UNL1       -0.5466
     42 O          24.7837   76.0287   -7.2428 O.co2   1  UNL1       -0.5466
     43 C          24.9919   76.7187   -6.2561 C.2     1  UNL1        0.0799
@<TRIPOS>UNITY_ATOM_ATTR
2 1
charge -1
26 1
charge -1
41 1
charge -1
@<TRIPOS>BOND
     1     1     4    1
     2     1    24    1
     3     1     2    1
     4     1     3    2
     5    25    28    1
     6    25    24    1
     7    25    26    1
     8    25    27    2
     9     6    11    1
    10     6    12    1
    11    29    36    1
    12    29    37    1
    13     7     9    1
    14     7    13    1
    15     8    10    1
    16     8    14    1
    17     4     5    1
    18    28    36    1
    19    30    33    1
    20    30    38    1
    21    31    34    1
    22    31    39    1
    23    32    35    1
    24    32    40    1
    25    41    43   ar
    26    15    19    2
    27    42    43   ar
    28    16    22    2
    29    17    12    1
    30    17    19   ar
    31    17    20   ar
    32    18    19   ar
    33    18    22   ar
    34    18    23    1
    35     9    10    1
    36     9    11    1
    37    10    12    1
    38    11     5    1
    39    33    34    1
    40    33    35    1
    41    34    36    1
    42    35    37    1
    43    37    43    1
    44    20    21   ar
    45    21    22   ar
@<TRIPOS>MOLECULE
*****
 43 45 0 0 0
SMALL
GASTEIGER

@<TRIPOS>ATOM
      1 P          21.9153   72.7136   -5.1544 P.3     1  UNL1        0.2189
      2 O          21.2529   71.3988   -4.4826 O.co2   1  UNL1       -0.4371
      3 O          23.3459   72.5556   -5.5792 O.2     1  UNL1       -0.5170
      4 O          21.6276   73.8868   -4.0779 O.3     1  UNL1       -0.3112
      5 C          22.1164   73.7287   -2.7586 C.3     1  UNL1        0.1811
      6 O          21.2098   72.4630   -0.9273 O.3     1  UNL1       -0.3308
      7 O          19.3675   74.7857   -0.4773 O.3     1  UNL1       -0.3794
      8 O          21.2747   75.1585    1.4358 O.3     1  UNL1       -0.3779
      9 C          20.7301   74.7825   -0.9039 C.3     1  UNL1        0.1713
     10 C          21.6434   74.4661    0.2614 C.3     1  UNL1        0.1895
     11 C          20.9365   73.5746   -1.8076 C.3     1  UNL1        0.1764
     12 C          21.4773   72.9618    0.3929 C.3     1  UNL1        0.2383
     13 H          19.2114   75.5488    0.1016 H       1  UNL1        0.2105
     14 H          21.3986   76.1117    1.3015 H       1  UNL1        0.2106
     15 O          21.6461   70.2222    1.0583 O.2     1  UNL1       -0.2464
     16 O          26.0548   70.6184    2.3429 O.2     1  UNL1       -0.2670
     17 N          22.6571   72.3228    0.9033 N.ar    1  UNL1       -0.2551
     18 N          23.8414   70.4223    1.6984 N.ar    1  UNL1       -0.2743
     19 C          22.6364   70.9408    1.2062 C.ar    1  UNL1        0.3323
     20 C          23.8176   73.0621    1.0974 C.ar    1  UNL1        0.0869
     21 C          24.9585   72.5540    1.5672 C.ar    1  UNL1        0.0795
     22 C          25.0211   71.1178    1.9090 C.ar    1  UNL1        0.2626
     23 H          23.8508   69.4627    1.9183 H       1  UNL1        0.1734
     24 O          20.8910   73.0629   -6.3550 O.3     1  UNL1       -0.2703
     25 P          19.2766   73.1431   -6.3833 P.3     1  UNL1        0.2208
     26 O          18.8723   72.0624   -7.5187 O.co2   1  UNL1       -0.4371
     27 O          18.7326   74.5222   -6.6206 O.2     1  UNL1       -0.5170
     28 O          18.8089   72.4688   -4.9944 O.3     1  UNL1       -0.2858
     29 O          16.7383   71.4449   -5.5172 O.3     1  UNL1       -0.3226
     30 O          17.3444   70.1797   -1.6313 O.3     1  UNL1       -0.3794
     31 O          17.9268   72.9377   -2.3986 O.3     1  UNL1       -0.3775
     32 O          17.7791   68.3484   -3.8467 O.3     1  UNL1       -0.3792
     33 C          17.7293   70.5824   -2.9457 C.3     1  UNL1        0.1718
     34 C          17.2294   72.0023   -3.2130 C.3     1  UNL1        0.1968
     35 C          17.1060   69.6022   -3.9421 C.3     1  UNL1        0.1723
     36 C          17.4197   72.3818   -4.6822 C.3     1  UNL1        0.2706
     37 C          17.2263   70.1127   -5.3751 C.3     1  UNL1        0.1830
     38 H          17.7290   70.7883   -0.9809 H       1  UNL1        0.2105
     39 H          17.8106   72.7028   -1.4650 H       1  UNL1        0.2106
     40 H          17.7102   68.0126   -2.9393 H       1  UNL1        0.2106
     41 O          15.9247   68.1879   -5.6957 O.co2   1  UNL1       -0.5466
     42 O          16.0313   69.6713   -7.4241 O.co2   1  UNL1       -0.5466
     43 C          16.3422   69.3319   -6.2922 C.2     1  UNL1        0.0799
@<TRIPOS>UNITY_ATOM_ATTR
2 1
charge -1
26 1
charge -1
41 1
charge -1
@<TRIPOS>BOND
     1     1     4    1
     2     1    24    1
     3     1     2    1
     4     1     3    2
     5    25    28    1
     6    25    24    1
     7    25    26    1
     8    25    27    2
     9     6    11    1
    10     6    12    1
    11    29    36    1
    12    29    37    1
    13     7     9    1
    14     7    13    1
    15     8    10    1
    16     8    14    1
    17     4     5    1
    18    28    36    1
    19    30    33    1
    20    30    38    1
    21    31    34    1
    22    31    39    1
    23    32    35    1
    24    32    40    1
    25    41    43   ar
    26    15    19    2
    27    42    43   ar
    28    16    22    2
    29    17    12    1
    30    17    19   ar
    31    17    20   ar
    32    18    19   ar
    33    18    22   ar
    34    18    23    1
    35     9    10    1
    36     9    11    1
    37    10    12    1
    38    11     5    1
    39    33    34    1
    40    33    35    1
    41    34    36    1
    42    35    37    1
    43    37    43    1
    44    20    21   ar
    45    21    22   ar
@<TRIPOS>MOLECULE
*****
 43 45 0 0 0
SMALL
GASTEIGER

@<TRIPOS>ATOM
      1 P          20.3154   72.3003   -2.4393 P.3     1  UNL1        0.2189
      2 O          20.2171   71.4090   -1.0922 O.co2   1  UNL1       -0.4371
      3 O          19.3174   73.4168   -2.5345 O.2     1  UNL1       -0.5170
      4 O          20.2642   71.2085   -3.6322 O.3     1  UNL1       -0.3112
      5 C          19.4230   70.0798   -3.4801 C.3     1  UNL1        0.1811
      6 O          17.7816   71.2889   -4.7536 O.3     1  UNL1       -0.3308
      7 O          15.7225   69.8440   -3.1215 O.3     1  UNL1       -0.3794
      8 O          15.7155   68.4459   -5.4627 O.3     1  UNL1       -0.3779
      9 C          16.9812   69.3769   -3.6071 C.3     1  UNL1        0.1713
     10 C          16.9040   69.1149   -5.0963 C.3     1  UNL1        0.1895
     11 C          17.9698   70.5328   -3.5377 C.3     1  UNL1        0.1764
     12 C          16.9843   70.5201   -5.6682 C.3     1  UNL1        0.2383
     13 H          15.0743   69.1227   -3.1561 H       1  UNL1        0.2105
     14 H          15.7123   67.5564   -5.0745 H       1  UNL1        0.2106
     15 O          15.5729   70.3706   -8.1099 O.2     1  UNL1       -0.2464
     16 O          19.4544   70.6432  -10.5806 O.2     1  UNL1       -0.2670
     17 N          17.6011   70.5498   -6.9642 N.ar    1  UNL1       -0.2551
     18 N          17.5075   70.5055   -9.3381 N.ar    1  UNL1       -0.2743
     19 C          16.8013   70.4682   -8.1286 C.ar    1  UNL1        0.3323
     20 C          18.9820   70.6603   -7.0727 C.ar    1  UNL1        0.0869
     21 C          19.6409   70.6947   -8.2327 C.ar    1  UNL1        0.0795
     22 C          18.8796   70.6138   -9.4965 C.ar    1  UNL1        0.2626
     23 H          16.9723   70.4481  -10.1625 H       1  UNL1        0.1734
     24 O          21.8604   72.7757   -2.4479 O.3     1  UNL1       -0.2703
     25 P          22.6719   73.7654   -1.4602 P.3     1  UNL1        0.2208
     26 O          21.5265   74.7781   -0.9285 O.co2   1  UNL1       -0.4371
     27 O          23.8490   74.4437   -2.0991 O.2     1  UNL1       -0.5170
     28 O          23.0376   72.8556   -0.1791 O.3     1  UNL1       -0.2858
     29 O          23.7995   74.2931    1.5420 O.3     1  UNL1       -0.3226
     30 O          24.0908   70.5895    3.3494 O.3     1  UNL1       -0.3794
     31 O          24.9205   70.9511    0.5718 O.3     1  UNL1       -0.3775
     32 O          21.9167   72.3878    4.0494 O.3     1  UNL1       -0.3792
     33 C          23.5419   71.5706    2.4696 C.3     1  UNL1        0.1718
     34 C          24.6080   72.0123    1.4667 C.3     1  UNL1        0.1968
     35 C          23.0818   72.7599    3.3157 C.3     1  UNL1        0.1723
     36 C          24.1323   73.2209    0.6593 C.3     1  UNL1        0.2706
     37 C          22.7447   73.9663    2.4442 C.3     1  UNL1        0.1830
     38 H          24.3902   69.8240    2.8339 H       1  UNL1        0.2105
     39 H          25.2228   70.1808    1.0774 H       1  UNL1        0.2106
     40 H          22.1177   71.6208    4.6082 H       1  UNL1        0.2106
     41 O          21.4741   75.8649    2.9757 O.co2   1  UNL1       -0.5466
     42 O          23.4292   75.5704    4.1114 O.co2   1  UNL1       -0.5466
     43 C          22.6187   75.2020    3.2746 C.2     1  UNL1        0.0799
@<TRIPOS>UNITY_ATOM_ATTR
2 1
charge -1
26 1
charge -1
41 1
charge -1
@<TRIPOS>BOND
     1     1     4    1
     2     1    24    1
     3     1     2    1
     4     1     3    2
     5    25    28    1
     6    25    24    1
     7    25    26    1
     8    25    27    2
     9     6    11    1
    10     6    12    1
    11    29    36    1
    12    29    37    1
    13     7     9    1
    14     7    13    1
    15     8    10    1
    16     8    14    1
    17     4     5    1
    18    28    36    1
    19    30    33    1
    20    30    38    1
    21    31    34    1
    22    31    39    1
    23    32    35    1
    24    32    40    1
    25    41    43   ar
    26    15    19    2
    27    42    43   ar
    28    16    22    2
    29    17    12    1
    30    17    19   ar
    31    17    20   ar
    32    18    19   ar
    33    18    22   ar
    34    18    23    1
    35     9    10    1
    36     9    11    1
    37    10    12    1
    38    11     5    1
    39    33    34    1
    40    33    35    1
    41    34    36    1
    42    35    37    1
    43    37    43    1
    44    20    21   ar
    45    21    22   ar
@<TRIPOS>MOLECULE
*****
 43 45 0 0 0
SMALL
GASTEIGER

@<TRIPOS>ATOM
      1 P          23.7586   72.7233   -3.9004 P.3     1  UNL1        0.2189
      2 O          24.9220   73.8202   -4.1497 O.co2   1  UNL1       -0.4371
      3 O          24.2285   71.4224   -3.3183 O.2     1  UNL1       -0.5170
      4 O          23.0066   72.6227   -5.3295 O.3     1  UNL1       -0.3112
      5 C          21.6250   72.3137   -5.3463 C.3     1  UNL1        0.1811
      6 O          20.5283   70.3862   -6.2732 O.3     1  UNL1       -0.3308
      7 O          20.6474   71.8158   -8.9064 O.3     1  UNL1       -0.3794
      8 O          18.0691   72.2289   -8.1202 O.3     1  UNL1       -0.3779
      9 C          20.4408   72.3480   -7.5977 C.3     1  UNL1        0.1713
     10 C          19.0417   72.0272   -7.1162 C.3     1  UNL1        0.1895
     11 C          21.3023   71.5531   -6.6260 C.3     1  UNL1        0.1764
     12 C          19.1734   70.5681   -6.7142 C.3     1  UNL1        0.2383
     13 H          20.1071   72.3079   -9.5449 H       1  UNL1        0.2105
     14 H          18.0232   73.1729   -8.3409 H       1  UNL1        0.2106
     15 O          16.4743   69.8174   -7.0716 O.2     1  UNL1       -0.2464
     16 O          15.8504   69.2206   -2.5441 O.2     1  UNL1       -0.2670
     17 N          18.2829   70.2115   -5.6461 N.ar    1  UNL1       -0.2551
     18 N          16.1659   69.5219   -4.8162 N.ar    1  UNL1       -0.2743
     19 C          16.9454   69.8498   -5.9332 C.ar    1  UNL1        0.3323
     20 C          18.7365   70.2206   -4.3327 C.ar    1  UNL1        0.0869
     21 C          17.9816   69.9054   -3.2784 C.ar    1  UNL1        0.0795
     22 C          16.5720   69.5169   -3.4916 C.ar    1  UNL1        0.2626
     23 H          15.2306   69.2687   -4.9909 H       1  UNL1        0.1734
     24 O          22.6942   73.5248   -2.9853 O.3     1  UNL1       -0.2703
     25 P          22.9126   74.6068   -1.8040 P.3     1  UNL1        0.2208
     26 O          21.7141   75.6672   -2.0475 O.co2   1  UNL1       -0.4371
     27 O          24.2833   75.2186   -1.7750 O.2     1  UNL1       -0.5170
     28 O          22.4986   73.8274   -0.4536 O.3     1  UNL1       -0.2858
     29 O          23.6598   73.5737    1.5949 O.3     1  UNL1       -0.3226
     30 O          21.6333   69.9835    1.3271 O.3     1  UNL1       -0.3794
     31 O          22.9172   71.1387   -1.0291 O.3     1  UNL1       -0.3775
     32 O          20.7065   72.0498    3.1499 O.3     1  UNL1       -0.3792
     33 C          21.8375   71.3826    1.1298 C.3     1  UNL1        0.1718
     34 C          23.1043   71.6032    0.3027 C.3     1  UNL1        0.1968
     35 C          21.9788   72.0385    2.5052 C.3     1  UNL1        0.1723
     36 C          23.4818   73.0848    0.2650 C.3     1  UNL1        0.2706
     37 C          22.4793   73.4753    2.3884 C.3     1  UNL1        0.1830
     38 H          21.5408   69.5455    0.4664 H       1  UNL1        0.2105
     39 H          22.6771   70.1993   -1.0127 H       1  UNL1        0.2106
     40 H          20.3767   71.1412    3.2303 H       1  UNL1        0.2106
     41 O          21.8873   74.0238    4.5907 O.co2   1  UNL1       -0.5466
     42 O          24.0645   74.3370    3.9902 O.co2   1  UNL1       -0.5466
     43 C          22.9246   73.9916    3.7178 C.2     1  UNL1        0.0799
@<TRIPOS>UNITY_ATOM_ATTR
2 1
charge -1
26 1
charge -1
41 1
charge -1
@<TRIPOS>BOND
     1     1     4    1
     2     1    24    1
     3     1     2    1
     4     1     3    2
     5    25    28    1
     6    25    24    1
     7    25    26    1
     8    25    27    2
     9     6    11    1
    10     6    12    1
    11    29    36    1
    12    29    37    1
    13     7     9    1
    14     7    13    1
    15     8    10    1
    16     8    14    1
    17     4     5    1
    18    28    36    1
    19    30    33    1
    20    30    38    1
    21    31    34    1
    22    31    39    1
    23    32    35    1
    24    32    40    1
    25    41    43   ar
    26    15    19    2
    27    42    43   ar
    28    16    22    2
    29    17    12    1
    30    17    19   ar
    31    17    20   ar
    32    18    19   ar
    33    18    22   ar
    34    18    23    1
    35     9    10    1
    36     9    11    1
    37    10    12    1
    38    11     5    1
    39    33    34    1
    40    33    35    1
    41    34    36    1
    42    35    37    1
    43    37    43    1
    44    20    21   ar
    45    21    22   ar
@<TRIPOS>MOLECULE
*****
 43 45 0 0 0
SMALL
GASTEIGER

@<TRIPOS>ATOM
      1 P          20.6949   71.1141   -2.4048 P.3     1  UNL1        0.2189
      2 O          19.5321   70.4501   -1.4961 O.co2   1  UNL1       -0.4371
      3 O          21.3887   70.1658   -3.3382 O.2     1  UNL1       -0.5170
      4 O          21.6451   71.8652   -1.3320 O.3     1  UNL1       -0.3112
      5 C          22.3989   71.0776   -0.4286 C.3     1  UNL1        0.1811
      6 O          22.7618   70.8086    1.9322 O.3     1  UNL1       -0.3308
      7 O          20.2747   72.4400    2.3118 O.3     1  UNL1       -0.3794
      8 O          22.2552   74.2584    2.7663 O.3     1  UNL1       -0.3779
      9 C          21.2915   72.5608    1.3168 C.3     1  UNL1        0.1713
     10 C          22.5422   73.1676    1.9165 C.3     1  UNL1        0.1895
     11 C          21.7608   71.1590    0.9522 C.3     1  UNL1        0.1764
     12 C          23.1394   71.9865    2.6624 C.3     1  UNL1        0.2383
     13 H          19.9591   73.3232    2.5609 H       1  UNL1        0.2105
     14 H          21.8776   74.9843    2.2444 H       1  UNL1        0.2106
     15 O          24.8617   69.7994    2.1861 O.2     1  UNL1       -0.2464
     16 O          28.6184   72.3523    2.9696 O.2     1  UNL1       -0.2670
     17 N          24.5716   72.0518    2.7351 N.ar    1  UNL1       -0.2551
     18 N          26.7310   71.0727    2.5778 N.ar    1  UNL1       -0.2743
     19 C          25.3449   70.8950    2.4780 C.ar    1  UNL1        0.3323
     20 C          25.1959   73.2510    3.0562 C.ar    1  UNL1        0.0869
     21 C          26.5183   73.4049    3.1475 C.ar    1  UNL1        0.0795
     22 C          27.3981   72.2450    2.8946 C.ar    1  UNL1        0.2626
     23 H          27.2901   70.2810    2.4051 H       1  UNL1        0.1734
     24 O          19.9314   72.3383   -3.1336 O.3     1  UNL1       -0.2703
     25 P          20.2090   73.0712   -4.5477 P.3     1  UNL1        0.2208
     26 O          21.6885   72.5516   -4.9493 O.co2   1  UNL1       -0.4371
     27 O          20.0687   74.5653   -4.5049 O.2     1  UNL1       -0.5170
     28 O          19.2221   72.3357   -5.5905 O.3     1  UNL1       -0.2858
     29 O          18.7307   70.0227   -5.4567 O.3     1  UNL1       -0.3226
     30 O          17.7900   70.8557   -9.3924 O.3     1  UNL1       -0.3794
     31 O          20.1929   71.9846   -8.1733 O.3     1  UNL1       -0.3775
     32 O          15.6746   70.4962   -7.4311 O.3     1  UNL1       -0.3792
     33 C          17.9279   71.1327   -7.9987 C.3     1  UNL1        0.1718
     34 C          19.3907   70.9665   -7.5862 C.3     1  UNL1        0.1968
     35 C          17.0432   70.1480   -7.2310 C.3     1  UNL1        0.1723
     36 C          19.5408   71.0289   -6.0656 C.3     1  UNL1        0.2706
     37 C          17.3412   70.1810   -5.7348 C.3     1  UNL1        0.1830
     38 H          18.3435   71.4694   -9.9005 H       1  UNL1        0.2105
     39 H          20.1022   71.9510   -9.1382 H       1  UNL1        0.2106
     40 H          15.4719   70.4791   -8.3795 H       1  UNL1        0.2106
     41 O          17.1143   68.9567   -3.7471 O.co2   1  UNL1       -0.5466
     42 O          15.9720   68.2012   -5.5702 O.co2   1  UNL1       -0.5466
     43 C          16.7253   69.0074   -5.0452 C.2     1  UNL1        0.0799
@<TRIPOS>UNITY_ATOM_ATTR
2 1
charge -1
26 1
charge -1
41 1
charge -1
@<TRIPOS>BOND
     1     1     4    1
     2     1    24    1
     3     1     2    1
     4     1     3    2
     5    25    28    1
     6    25    24    1
     7    25    26    1
     8    25    27    2
     9     6    11    1
    10     6    12    1
    11    29    36    1
    12    29    37    1
    13     7     9    1
    14     7    13    1
    15     8    10    1
    16     8    14    1
    17     4     5    1
    18    28    36    1
    19    30    33    1
    20    30    38    1
    21    31    34    1
    22    31    39    1
    23    32    35    1
    24    32    40    1
    25    41    43   ar
    26    15    19    2
    27    42    43   ar
    28    16    22    2
    29    17    12    1
    30    17    19   ar
    31    17    20   ar
    32    18    19   ar
    33    18    22   ar
    34    18    23    1
    35     9    10    1
    36     9    11    1
    37    10    12    1
    38    11     5    1
    39    33    34    1
    40    33    35    1
    41    34    36    1
    42    35    37    1
    43    37    43    1
    44    20    21   ar
    45    21    22   ar
