@<TRIPOS>MOLECULE
*****
 43 45 0 0 0
SMALL
GASTEIGER

@<TRIPOS>ATOM
      1 P          22.7355   71.4727   -2.7249 P.3     1  UNL1        0.2189
      2 O          23.0941   72.9390   -3.3081 O.co2   1  UNL1       -0.4371
      3 O          23.5711   70.3521   -3.2706 O.2     1  UNL1       -0.5170
      4 O          21.1405   71.3397   -2.9621 O.3     1  UNL1       -0.3112
      5 C          20.4770   72.3603   -3.6850 C.3     1  UNL1        0.1811
      6 O          18.3251   72.3942   -4.7555 O.3     1  UNL1       -0.3308
      7 O          17.3016   70.9635   -2.3271 O.3     1  UNL1       -0.3794
      8 O          17.5667   68.9444   -4.1407 O.3     1  UNL1       -0.3779
      9 C          18.5624   70.8381   -2.9854 C.3     1  UNL1        0.1713
     10 C          18.4026   70.0739   -4.2826 C.3     1  UNL1        0.1895
     11 C          18.9746   72.2187   -3.4777 C.3     1  UNL1        0.1764
     12 C          17.8086   71.1295   -5.1995 C.3     1  UNL1        0.2383
     13 H          17.0175   70.0938   -2.0037 H       1  UNL1        0.2105
     14 H          17.9890   68.3020   -3.5483 H       1  UNL1        0.2106
     15 O          15.9970   70.4260   -7.2488 O.2     1  UNL1       -0.2464
     16 O          19.3284   70.3959  -10.4340 O.2     1  UNL1       -0.2670
     17 N          18.1757   70.9315   -6.5732 N.ar    1  UNL1       -0.2551
     18 N          17.6581   70.4107   -8.8331 N.ar    1  UNL1       -0.2743
     19 C          17.1885   70.5796   -7.5238 C.ar    1  UNL1        0.3323
     20 C          19.4992   71.0875   -6.9668 C.ar    1  UNL1        0.0869
     21 C          19.9316   70.9233   -8.2185 C.ar    1  UNL1        0.0795
     22 C          18.9642   70.5542   -9.2727 C.ar    1  UNL1        0.2626
     23 H          16.9896   70.1635   -9.5122 H       1  UNL1        0.1734
     24 O          22.8490   71.6803   -1.1259 O.3     1  UNL1       -0.2703
     25 P          22.4469   70.7084    0.1018 P.3     1  UNL1        0.2208
     26 O          23.7253   69.7234    0.2278 O.co2   1  UNL1       -0.4371
     27 O          21.1356   69.9999   -0.0777 O.2     1  UNL1       -0.5170
     28 O          22.5265   71.6481    1.4107 O.3     1  UNL1       -0.2858
     29 O          21.4995   72.5145    3.3610 O.3     1  UNL1       -0.3226
     30 O          21.2186   75.7190    0.7687 O.3     1  UNL1       -0.3794
     31 O          20.6821   73.0046   -0.1686 O.3     1  UNL1       -0.3775
     32 O          23.1977   75.7339    2.8980 O.3     1  UNL1       -0.3792
     33 C          21.8054   74.5455    1.3313 C.3     1  UNL1        0.1718
     34 C          20.8337   73.3728    1.1975 C.3     1  UNL1        0.1968
     35 C          22.1017   74.8256    2.8063 C.3     1  UNL1        0.1723
     36 C          21.3271   72.1604    1.9883 C.3     1  UNL1        0.2706
     37 C          22.4648   73.5461    3.5543 C.3     1  UNL1        0.1830
     38 H          21.0215   75.5646   -0.1687 H       1  UNL1        0.2105
     39 H          20.3695   73.7693   -0.6764 H       1  UNL1        0.2106
     40 H          22.9795   76.5526    2.4257 H       1  UNL1        0.2106
     41 O          22.2004   75.0731    5.3149 O.co2   1  UNL1       -0.5466
     42 O          22.5805   72.8957    5.8749 O.co2   1  UNL1       -0.5466
     43 C          22.4287   73.7668    5.0316 C.2     1  UNL1        0.0799
@<TRIPOS>UNITY_ATOM_ATTR
2 1
charge -1
26 1
charge -1
41 1
charge -1
@<TRIPOS>BOND
     1     1     4    1
     2     1    24    1
     3     1     2    1
     4     1     3    2
     5    25    28    1
     6    25    24    1
     7    25    26    1
     8    25    27    2
     9     6    11    1
    10     6    12    1
    11    29    36    1
    12    29    37    1
    13     7     9    1
    14     7    13    1
    15     8    10    1
    16     8    14    1
    17     4     5    1
    18    28    36    1
    19    30    33    1
    20    30    38    1
    21    31    34    1
    22    31    39    1
    23    32    35    1
    24    32    40    1
    25    41    43   ar
    26    15    19    2
    27    42    43   ar
    28    16    22    2
    29    17    12    1
    30    17    19   ar
    31    17    20   ar
    32    18    19   ar
    33    18    22   ar
    34    18    23    1
    35     9    10    1
    36     9    11    1
    37    10    12    1
    38    11     5    1
    39    33    34    1
    40    33    35    1
    41    34    36    1
    42    35    37    1
    43    37    43    1
    44    20    21   ar
    45    21    22   ar
@<TRIPOS>MOLECULE
*****
 43 45 0 0 0
SMALL
GASTEIGER

@<TRIPOS>ATOM
      1 P          21.6189   70.4186   -1.0053 P.3     1  UNL1        0.2189
      2 O          23.1298   70.7237   -1.4980 O.co2   1  UNL1       -0.4371
      3 O          21.5139   69.5715    0.2290 O.2     1  UNL1       -0.5170
      4 O          20.8911   69.8303   -2.3252 O.3     1  UNL1       -0.3112
      5 C          20.6300   70.7109   -3.4025 C.3     1  UNL1        0.1811
      6 O          18.8566   71.8964   -4.5105 O.3     1  UNL1       -0.3308
      7 O          17.0393   70.7637   -2.4115 O.3     1  UNL1       -0.3794
      8 O          16.5595   69.1441   -4.5522 O.3     1  UNL1       -0.3779
      9 C          18.1707   70.1663   -3.0452 C.3     1  UNL1        0.1713
     10 C          17.8254   69.7639   -4.4633 C.3     1  UNL1        0.1895
     11 C          19.2131   71.2536   -3.2675 C.3     1  UNL1        0.1764
     12 C          17.8763   71.0966   -5.1906 C.3     1  UNL1        0.2383
     13 H          16.3595   70.0881   -2.2592 H       1  UNL1        0.2105
     14 H          16.5786   68.2997   -4.0740 H       1  UNL1        0.2106
     15 O          16.1012   70.4297   -7.2837 O.2     1  UNL1       -0.2464
     16 O          19.4651   70.5832  -10.4308 O.2     1  UNL1       -0.2670
     17 N          18.2616   70.9558   -6.5664 N.ar    1  UNL1       -0.2551
     18 N          17.7785   70.5058   -8.8490 N.ar    1  UNL1       -0.2743
     19 C          17.2920   70.6178   -7.5399 C.ar    1  UNL1        0.3323
     20 C          19.5855   71.1532   -6.9396 C.ar    1  UNL1        0.0869
     21 C          20.0342   71.0431   -8.1915 C.ar    1  UNL1        0.0795
     22 C          19.0857   70.6920   -9.2688 C.ar    1  UNL1        0.2626
     23 H          17.1224   70.2693   -9.5439 H       1  UNL1        0.1734
     24 O          20.9777   71.8957   -0.8647 O.3     1  UNL1       -0.2703
     25 P          21.2904   73.0941    0.1745 P.3     1  UNL1        0.2208
     26 O          22.3455   72.4251    1.2038 O.co2   1  UNL1       -0.4371
     27 O          20.0709   73.6749    0.8296 O.2     1  UNL1       -0.5170
     28 O          22.1638   74.1531   -0.6728 O.3     1  UNL1       -0.2858
     29 O          24.2040   74.0926   -1.8743 O.3     1  UNL1       -0.3226
     30 O          24.4910   77.7170    0.0878 O.3     1  UNL1       -0.3794
     31 O          23.4578   75.3612    1.4725 O.3     1  UNL1       -0.3775
     32 O          23.8634   77.6394   -2.7496 O.3     1  UNL1       -0.3792
     33 C          23.8215   76.6352   -0.5599 C.3     1  UNL1        0.1718
     34 C          24.0936   75.3366    0.1997 C.3     1  UNL1        0.1968
     35 C          24.3561   76.5369   -1.9905 C.3     1  UNL1        0.1723
     36 C          23.5874   74.1265   -0.5865 C.3     1  UNL1        0.2706
     37 C          23.9098   75.2426   -2.6643 C.3     1  UNL1        0.1830
     38 H          24.1674   77.7986    0.9988 H       1  UNL1        0.2105
     39 H          23.7741   76.1267    1.9767 H       1  UNL1        0.2106
     40 H          24.1404   78.4696   -2.3313 H       1  UNL1        0.2106
     41 O          24.0400   75.5062   -4.9913 O.co2   1  UNL1       -0.5466
     42 O          25.7677   74.4253   -3.9687 O.co2   1  UNL1       -0.5466
     43 C          24.6903   74.9991   -3.9148 C.2     1  UNL1        0.0799
@<TRIPOS>UNITY_ATOM_ATTR
2 1
charge -1
26 1
charge -1
41 1
charge -1
@<TRIPOS>BOND
     1     1     4    1
     2     1    24    1
     3     1     2    1
     4     1     3    2
     5    25    28    1
     6    25    24    1
     7    25    26    1
     8    25    27    2
     9     6    11    1
    10     6    12    1
    11    29    36    1
    12    29    37    1
    13     7     9    1
    14     7    13    1
    15     8    10    1
    16     8    14    1
    17     4     5    1
    18    28    36    1
    19    30    33    1
    20    30    38    1
    21    31    34    1
    22    31    39    1
    23    32    35    1
    24    32    40    1
    25    41    43   ar
    26    15    19    2
    27    42    43   ar
    28    16    22    2
    29    17    12    1
    30    17    19   ar
    31    17    20   ar
    32    18    19   ar
    33    18    22   ar
    34    18    23    1
    35     9    10    1
    36     9    11    1
    37    10    12    1
    38    11     5    1
    39    33    34    1
    40    33    35    1
    41    34    36    1
    42    35    37    1
    43    37    43    1
    44    20    21   ar
    45    21    22   ar
@<TRIPOS>MOLECULE
*****
 43 45 0 0 0
SMALL
GASTEIGER

@<TRIPOS>ATOM
      1 P          22.0095   73.7823   -6.0764 P.3     1  UNL1        0.2189
      2 O          22.3811   75.3359   -6.3354 O.co2   1  UNL1       -0.4371
      3 O          22.8647   72.7947   -6.8148 O.2     1  UNL1       -0.5170
      4 O          20.4228   73.7059   -6.3838 O.3     1  UNL1       -0.3112
      5 C          19.9161   74.4110   -7.5020 C.3     1  UNL1        0.1811
      6 O          19.6297   72.0830   -8.0275 O.3     1  UNL1       -0.3308
      7 O          17.9816   73.0030  -10.3575 O.3     1  UNL1       -0.3794
      8 O          16.0861   72.2666   -8.5406 O.3     1  UNL1       -0.3779
      9 C          18.0825   73.5592   -9.0463 C.3     1  UNL1        0.1713
     10 C          17.3403   72.6928   -8.0509 C.3     1  UNL1        0.1895
     11 C          19.5255   73.4118   -8.5833 C.3     1  UNL1        0.1764
     12 C          18.3112   71.5418   -7.8492 C.3     1  UNL1        0.2383
     13 H          17.0682   73.0856  -10.6747 H       1  UNL1        0.2105
     14 H          15.5042   73.0353   -8.6519 H       1  UNL1        0.2106
     15 O          16.1687   69.9268   -6.9671 O.2     1  UNL1       -0.2464
     16 O          18.0493   69.3938   -2.7930 O.2     1  UNL1       -0.2670
     17 N          18.2155   70.9679   -6.5368 N.ar    1  UNL1       -0.2551
     18 N          17.1069   69.6637   -4.8887 N.ar    1  UNL1       -0.2743
     19 C          17.0971   70.1716   -6.1944 C.ar    1  UNL1        0.3323
     20 C          19.2221   71.1940   -5.6059 C.ar    1  UNL1        0.0869
     21 C          19.2175   70.7030   -4.3651 C.ar    1  UNL1        0.0795
     22 C          18.0846   69.8616   -3.9271 C.ar    1  UNL1        0.2626
     23 H          16.3376   69.1081   -4.6265 H       1  UNL1        0.1734
     24 O          22.0741   73.6573   -4.4661 O.3     1  UNL1       -0.2703
     25 P          23.1581   72.9476   -3.4992 P.3     1  UNL1        0.2208
     26 O          24.5001   73.8185   -3.7461 O.co2   1  UNL1       -0.4371
     27 O          23.3243   71.4746   -3.7371 O.2     1  UNL1       -0.5170
     28 O          22.6899   73.3358   -2.0050 O.3     1  UNL1       -0.2858
     29 O          21.5793   71.5809   -0.8666 O.3     1  UNL1       -0.3226
     30 O          20.9903   74.7581    1.7076 O.3     1  UNL1       -0.3794
     31 O          20.7243   75.1218   -1.1789 O.3     1  UNL1       -0.3775
     32 O          22.9543   72.7109    2.3419 O.3     1  UNL1       -0.3792
     33 C          21.6883   73.9820    0.7337 C.3     1  UNL1        0.1718
     34 C          20.8365   73.8604   -0.5301 C.3     1  UNL1        0.1968
     35 C          21.9529   72.5988    1.3324 C.3     1  UNL1        0.1723
     36 C          21.4450   72.8513   -1.5050 C.3     1  UNL1        0.2706
     37 C          22.4383   71.6159    0.2708 C.3     1  UNL1        0.1830
     38 H          20.8111   75.6417    1.3492 H       1  UNL1        0.2105
     39 H          20.3392   75.7670   -0.5659 H       1  UNL1        0.2106
     40 H          22.6578   73.3338    3.0237 H       1  UNL1        0.2106
     41 O          23.3847   69.9782    1.6579 O.co2   1  UNL1       -0.5466
     42 O          21.5393   69.3846    0.4574 O.co2   1  UNL1       -0.5466
     43 C          22.3780   70.2125    0.7801 C.2     1  UNL1        0.0799
@<TRIPOS>UNITY_ATOM_ATTR
2 1
charge -1
26 1
charge -1
41 1
charge -1
@<TRIPOS>BOND
     1     1     4    1
     2     1    24    1
     3     1     2    1
     4     1     3    2
     5    25    28    1
     6    25    24    1
     7    25    26    1
     8    25    27    2
     9     6    11    1
    10     6    12    1
    11    29    36    1
    12    29    37    1
    13     7     9    1
    14     7    13    1
    15     8    10    1
    16     8    14    1
    17     4     5    1
    18    28    36    1
    19    30    33    1
    20    30    38    1
    21    31    34    1
    22    31    39    1
    23    32    35    1
    24    32    40    1
    25    41    43   ar
    26    15    19    2
    27    42    43   ar
    28    16    22    2
    29    17    12    1
    30    17    19   ar
    31    17    20   ar
    32    18    19   ar
    33    18    22   ar
    34    18    23    1
    35     9    10    1
    36     9    11    1
    37    10    12    1
    38    11     5    1
    39    33    34    1
    40    33    35    1
    41    34    36    1
    42    35    37    1
    43    37    43    1
    44    20    21   ar
    45    21    22   ar
@<TRIPOS>MOLECULE
*****
 43 45 0 0 0
SMALL
GASTEIGER

@<TRIPOS>ATOM
      1 P          22.8236   71.7997   -2.2531 P.3     1  UNL1        0.2189
      2 O          23.5367   73.2460   -2.3896 O.co2   1  UNL1       -0.4371
      3 O          23.3883   70.7287   -3.1396 O.2     1  UNL1       -0.5170
      4 O          21.2508   72.1214   -2.4542 O.3     1  UNL1       -0.3112
      5 C          20.5480   71.4446   -3.4801 C.3     1  UNL1        0.1811
      6 O          18.6092   72.2497   -4.6507 O.3     1  UNL1       -0.3308
      7 O          16.9958   71.0289   -2.4375 O.3     1  UNL1       -0.3794
      8 O          16.7623   69.1845   -4.4325 O.3     1  UNL1       -0.3779
      9 C          18.2031   70.5615   -3.0395 C.3     1  UNL1        0.1713
     10 C          17.9182   69.9958   -4.4147 C.3     1  UNL1        0.1895
     11 C          19.0651   71.7734   -3.3659 C.3     1  UNL1        0.1764
     12 C          17.7608   71.2563   -5.2479 C.3     1  UNL1        0.2383
     13 H          16.4285   70.2722   -2.2200 H       1  UNL1        0.2105
     14 H          16.9129   68.3952   -3.8881 H       1  UNL1        0.2106
     15 O          16.0497   70.3153   -7.2883 O.2     1  UNL1       -0.2464
     16 O          19.3919   70.5544  -10.4532 O.2     1  UNL1       -0.2670
     17 N          18.1578   71.0633   -6.6139 N.ar    1  UNL1       -0.2551
     18 N          17.7162   70.4343   -8.8624 N.ar    1  UNL1       -0.2743
     19 C          17.2208   70.5860   -7.5606 C.ar    1  UNL1        0.3323
     20 C          19.4609   71.3472   -7.0042 C.ar    1  UNL1        0.0869
     21 C          19.9184   71.1978   -8.2488 C.ar    1  UNL1        0.0795
     22 C          19.0036   70.7028   -9.2984 C.ar    1  UNL1        0.2626
     23 H          17.0828   70.1014   -9.5386 H       1  UNL1        0.1734
     24 O          22.9317   71.4899   -0.6703 O.3     1  UNL1       -0.2703
     25 P          22.0330   70.5510    0.2913 P.3     1  UNL1        0.2208
     26 O          23.1373   69.7385    1.1519 O.co2   1  UNL1       -0.4371
     27 O          21.0544   69.6784   -0.4401 O.2     1  UNL1       -0.5170
     28 O          21.3625   71.5696    1.3474 O.3     1  UNL1       -0.2858
     29 O          21.8621   73.8807    1.2111 O.3     1  UNL1       -0.3226
     30 O          20.2768   73.5861    5.0148 O.3     1  UNL1       -0.3794
     31 O          22.1287   71.5570    4.0211 O.3     1  UNL1       -0.3775
     32 O          18.6939   74.7243    2.8583 O.3     1  UNL1       -0.3792
     33 C          20.4298   73.2459    3.6368 C.3     1  UNL1        0.1718
     34 C          21.8686   72.7988    3.3769 C.3     1  UNL1        0.1968
     35 C          20.0993   74.4864    2.8039 C.3     1  UNL1        0.1723
     36 C          22.1320   72.6471    1.8781 C.3     1  UNL1        0.2706
     37 C          20.5066   74.3025    1.3448 C.3     1  UNL1        0.1830
     38 H          20.4818   72.8128    5.5637 H       1  UNL1        0.2105
     39 H          21.9633   71.6459    4.9725 H       1  UNL1        0.2106
     40 H          18.4216   74.8429    3.7817 H       1  UNL1        0.2106
     41 O          20.4264   76.6417    1.4972 O.co2   1  UNL1       -0.5466
     42 O          20.5275   75.7384   -0.5940 O.co2   1  UNL1       -0.5466
     43 C          20.4889   75.6091    0.6204 C.2     1  UNL1        0.0799
@<TRIPOS>UNITY_ATOM_ATTR
2 1
charge -1
26 1
charge -1
41 1
charge -1
@<TRIPOS>BOND
     1     1     4    1
     2     1    24    1
     3     1     2    1
     4     1     3    2
     5    25    28    1
     6    25    24    1
     7    25    26    1
     8    25    27    2
     9     6    11    1
    10     6    12    1
    11    29    36    1
    12    29    37    1
    13     7     9    1
    14     7    13    1
    15     8    10    1
    16     8    14    1
    17     4     5    1
    18    28    36    1
    19    30    33    1
    20    30    38    1
    21    31    34    1
    22    31    39    1
    23    32    35    1
    24    32    40    1
    25    41    43   ar
    26    15    19    2
    27    42    43   ar
    28    16    22    2
    29    17    12    1
    30    17    19   ar
    31    17    20   ar
    32    18    19   ar
    33    18    22   ar
    34    18    23    1
    35     9    10    1
    36     9    11    1
    37    10    12    1
    38    11     5    1
    39    33    34    1
    40    33    35    1
    41    34    36    1
    42    35    37    1
    43    37    43    1
    44    20    21   ar
    45    21    22   ar
@<TRIPOS>MOLECULE
*****
 43 45 0 0 0
SMALL
GASTEIGER

@<TRIPOS>ATOM
      1 P          23.0452   72.0554   -3.4034 P.3     1  UNL1        0.2189
      2 O          23.7768   73.0014   -4.4937 O.co2   1  UNL1       -0.4371
      3 O          23.6276   70.6793   -3.2663 O.2     1  UNL1       -0.5170
      4 O          21.4830   72.1190   -3.8198 O.3     1  UNL1       -0.3112
      5 C          20.6575   71.0086   -3.5194 C.3     1  UNL1        0.1811
      6 O          18.8039   72.0400   -4.6499 O.3     1  UNL1       -0.3308
      7 O          17.0882   70.9296   -2.4556 O.3     1  UNL1       -0.3794
      8 O          16.6542   69.1747   -4.4972 O.3     1  UNL1       -0.3779
      9 C          18.2374   70.3581   -3.0811 C.3     1  UNL1        0.1713
     10 C          17.8872   69.8628   -4.4683 C.3     1  UNL1        0.1895
     11 C          19.2168   71.4841   -3.3827 C.3     1  UNL1        0.1764
     12 C          17.8544   71.1554   -5.2658 C.3     1  UNL1        0.2383
     13 H          16.4478   70.2292   -2.2533 H       1  UNL1        0.2105
     14 H          16.7266   68.3594   -3.9757 H       1  UNL1        0.2106
     15 O          16.0446   70.4407   -7.3129 O.2     1  UNL1       -0.2464
     16 O          19.3714   70.4355  -10.5030 O.2     1  UNL1       -0.2670
     17 N          18.2207   70.9608   -6.6401 N.ar    1  UNL1       -0.2551
     18 N          17.7034   70.4378   -8.8996 N.ar    1  UNL1       -0.2743
     19 C          17.2346   70.6027   -7.5896 C.ar    1  UNL1        0.3323
     20 C          19.5426   71.1260   -7.0357 C.ar    1  UNL1        0.0869
     21 C          19.9742   70.9655   -8.2881 C.ar    1  UNL1        0.0795
     22 C          19.0078   70.5905   -9.3411 C.ar    1  UNL1        0.2626
     23 H          17.0356   70.1864   -9.5780 H       1  UNL1        0.1734
     24 O          23.0987   72.9465   -2.0558 O.3     1  UNL1       -0.2703
     25 P          22.6736   74.4819   -1.7811 P.3     1  UNL1        0.2208
     26 O          21.3957   74.6914   -2.7524 O.co2   1  UNL1       -0.4371
     27 O          23.7801   75.4744   -1.9923 O.2     1  UNL1       -0.5170
     28 O          22.0557   74.4752   -0.2909 O.3     1  UNL1       -0.2858
     29 O          21.0769   72.3190   -0.2473 O.3     1  UNL1       -0.3226
     30 O          20.9001   73.4031    3.7353 O.3     1  UNL1       -0.3794
     31 O          20.2532   75.3375    1.6439 O.3     1  UNL1       -0.3775
     32 O          22.8937   71.4904    2.8308 O.3     1  UNL1       -0.3792
     33 C          21.4456   73.3710    2.4165 C.3     1  UNL1        0.1718
     34 C          20.4287   73.9421    1.4279 C.3     1  UNL1        0.1968
     35 C          21.7631   71.9142    2.0714 C.3     1  UNL1        0.1723
     36 C          20.8810   73.7144   -0.0151 C.3     1  UNL1        0.2706
     37 C          22.0823   71.7499    0.5883 C.3     1  UNL1        0.1830
     38 H          20.6905   74.3192    3.9764 H       1  UNL1        0.2105
     39 H          19.9665   75.4893    2.5577 H       1  UNL1        0.2106
     40 H          22.7037   71.5901    3.7767 H       1  UNL1        0.2106
     41 O          23.2811   69.7423    0.4029 O.co2   1  UNL1       -0.5466
     42 O          21.0941   69.7112   -0.2415 O.co2   1  UNL1       -0.5466
     43 C          22.0654   70.3076    0.1987 C.2     1  UNL1        0.0799
@<TRIPOS>UNITY_ATOM_ATTR
2 1
charge -1
26 1
charge -1
41 1
charge -1
@<TRIPOS>BOND
     1     1     4    1
     2     1    24    1
     3     1     2    1
     4     1     3    2
     5    25    28    1
     6    25    24    1
     7    25    26    1
     8    25    27    2
     9     6    11    1
    10     6    12    1
    11    29    36    1
    12    29    37    1
    13     7     9    1
    14     7    13    1
    15     8    10    1
    16     8    14    1
    17     4     5    1
    18    28    36    1
    19    30    33    1
    20    30    38    1
    21    31    34    1
    22    31    39    1
    23    32    35    1
    24    32    40    1
    25    41    43   ar
    26    15    19    2
    27    42    43   ar
    28    16    22    2
    29    17    12    1
    30    17    19   ar
    31    17    20   ar
    32    18    19   ar
    33    18    22   ar
    34    18    23    1
    35     9    10    1
    36     9    11    1
    37    10    12    1
    38    11     5    1
    39    33    34    1
    40    33    35    1
    41    34    36    1
    42    35    37    1
    43    37    43    1
    44    20    21   ar
    45    21    22   ar
@<TRIPOS>MOLECULE
*****
 43 45 0 0 0
SMALL
GASTEIGER

@<TRIPOS>ATOM
      1 P          22.9513   71.9797   -2.8358 P.3     1  UNL1        0.2189
      2 O          23.5239   70.5032   -3.1688 O.co2   1  UNL1       -0.4371
      3 O          22.8804   72.3173   -1.3754 O.2     1  UNL1       -0.5170
      4 O          21.5490   72.0432   -3.6404 O.3     1  UNL1       -0.3112
      5 C          20.6892   70.9195   -3.5902 C.3     1  UNL1        0.1811
      6 O          18.8364   71.9728   -4.7017 O.3     1  UNL1       -0.3308
      7 O          17.1239   70.8475   -2.5125 O.3     1  UNL1       -0.3794
      8 O          16.6723   69.1173   -4.5713 O.3     1  UNL1       -0.3779
      9 C          18.2675   70.2768   -3.1490 C.3     1  UNL1        0.1713
     10 C          17.9090   69.7985   -4.5400 C.3     1  UNL1        0.1895
     11 C          19.2516   71.4010   -3.4423 C.3     1  UNL1        0.1764
     12 C          17.8798   71.0999   -5.3232 C.3     1  UNL1        0.2383
     13 H          16.4807   70.1482   -2.3152 H       1  UNL1        0.2105
     14 H          16.7425   68.2960   -4.0590 H       1  UNL1        0.2106
     15 O          16.0513   70.4570   -7.3774 O.2     1  UNL1       -0.2464
     16 O          19.3718   70.4274  -10.5738 O.2     1  UNL1       -0.2670
     17 N          18.2395   70.9184   -6.7011 N.ar    1  UNL1       -0.2551
     18 N          17.7070   70.4418   -8.9673 N.ar    1  UNL1       -0.2743
     19 C          17.2441   70.5968   -7.6540 C.ar    1  UNL1        0.3323
     20 C          19.5639   71.0606   -7.0967 C.ar    1  UNL1        0.0869
     21 C          19.9899   70.9099   -8.3523 C.ar    1  UNL1        0.0795
     22 C          19.0137   70.5725   -9.4090 C.ar    1  UNL1        0.2626
     23 H          17.0327   70.2157   -9.6481 H       1  UNL1        0.1734
     24 O          23.9127   72.9462   -3.7044 O.3     1  UNL1       -0.2703
     25 P          24.2735   74.5132   -3.5367 P.3     1  UNL1        0.2208
     26 O          24.6113   74.6482   -1.9594 O.co2   1  UNL1       -0.4371
     27 O          23.2028   75.4470   -4.0221 O.2     1  UNL1       -0.5170
     28 O          25.6977   74.6864   -4.2743 O.3     1  UNL1       -0.2858
     29 O          27.2486   75.8981   -2.9569 O.3     1  UNL1       -0.3226
     30 O          29.3062   75.4916   -6.5163 O.3     1  UNL1       -0.3794
     31 O          26.4584   76.1435   -6.5180 O.3     1  UNL1       -0.3775
     32 O          30.0169   73.8506   -4.2244 O.3     1  UNL1       -0.3792
     33 C          28.3948   75.1077   -5.4867 C.3     1  UNL1        0.1718
     34 C          27.2901   76.1575   -5.3636 C.3     1  UNL1        0.1968
     35 C          29.1783   75.0034   -4.1763 C.3     1  UNL1        0.1723
     36 C          26.4285   75.9024   -4.1260 C.3     1  UNL1        0.2706
     37 C          28.2436   74.8769   -2.9768 C.3     1  UNL1        0.1830
     38 H          28.8305   75.5643   -7.3587 H       1  UNL1        0.2105
     39 H          26.9987   76.3044   -7.3071 H       1  UNL1        0.2106
     40 H          30.6167   73.9185   -4.9836 H       1  UNL1        0.2106
     41 O          29.9446   74.1634   -1.5281 O.co2   1  UNL1       -0.5466
     42 O          28.7651   76.0158   -0.9147 O.co2   1  UNL1       -0.5466
     43 C          28.9850   75.1059   -1.7000 C.2     1  UNL1        0.0799
@<TRIPOS>UNITY_ATOM_ATTR
2 1
charge -1
26 1
charge -1
41 1
charge -1
@<TRIPOS>BOND
     1     1     4    1
     2     1    24    1
     3     1     2    1
     4     1     3    2
     5    25    28    1
     6    25    24    1
     7    25    26    1
     8    25    27    2
     9     6    11    1
    10     6    12    1
    11    29    36    1
    12    29    37    1
    13     7     9    1
    14     7    13    1
    15     8    10    1
    16     8    14    1
    17     4     5    1
    18    28    36    1
    19    30    33    1
    20    30    38    1
    21    31    34    1
    22    31    39    1
    23    32    35    1
    24    32    40    1
    25    41    43   ar
    26    15    19    2
    27    42    43   ar
    28    16    22    2
    29    17    12    1
    30    17    19   ar
    31    17    20   ar
    32    18    19   ar
    33    18    22   ar
    34    18    23    1
    35     9    10    1
    36     9    11    1
    37    10    12    1
    38    11     5    1
    39    33    34    1
    40    33    35    1
    41    34    36    1
    42    35    37    1
    43    37    43    1
    44    20    21   ar
    45    21    22   ar
@<TRIPOS>MOLECULE
*****
 43 45 0 0 0
SMALL
GASTEIGER

@<TRIPOS>ATOM
      1 P          21.6113   70.3422   -1.0322 P.3     1  UNL1        0.2189
      2 O          23.1287   70.6094   -1.5271 O.co2   1  UNL1       -0.4371
      3 O          21.4873   69.5066    0.2081 O.2     1  UNL1       -0.5170
      4 O          20.8701   69.7611   -2.3478 O.3     1  UNL1       -0.3112
      5 C          20.6362   70.6377   -3.4347 C.3     1  UNL1        0.1811
      6 O          18.8947   71.8520   -4.5619 O.3     1  UNL1       -0.3308
      7 O          17.0502   70.8098   -2.4398 O.3     1  UNL1       -0.3794
      8 O          16.5210   69.1651   -4.5495 O.3     1  UNL1       -0.3779
      9 C          18.1632   70.1692   -3.0639 C.3     1  UNL1        0.1713
     10 C          17.8040   69.7506   -4.4739 C.3     1  UNL1        0.1895
     11 C          19.2353   71.2225   -3.3077 C.3     1  UNL1        0.1764
     12 C          17.8910   71.0677   -5.2258 C.3     1  UNL1        0.2383
     13 H          16.3520   70.1566   -2.2741 H       1  UNL1        0.2105
     14 H          16.5172   68.3295   -4.0558 H       1  UNL1        0.2106
     15 O          16.0883   70.4481   -7.3098 O.2     1  UNL1       -0.2464
     16 O          19.4550   70.4112  -10.4575 O.2     1  UNL1       -0.2670
     17 N          18.2695   70.8907   -6.5992 N.ar    1  UNL1       -0.2551
     18 N          17.7670   70.4293   -8.8754 N.ar    1  UNL1       -0.2743
     19 C          17.2860   70.5809   -7.5682 C.ar    1  UNL1        0.3323
     20 C          19.6006   71.0254   -6.9747 C.ar    1  UNL1        0.0869
     21 C          20.0439   70.8781   -8.2247 C.ar    1  UNL1        0.0795
     22 C          19.0809   70.5530   -9.2972 C.ar    1  UNL1        0.2626
     23 H          17.1011   70.2114   -9.5671 H       1  UNL1        0.1734
     24 O          21.0038   71.8345   -0.9022 O.3     1  UNL1       -0.2703
     25 P          21.6240   73.1804   -0.2560 P.3     1  UNL1        0.2208
     26 O          22.3662   72.6421    1.0780 O.co2   1  UNL1       -0.4371
     27 O          20.6164   74.2653   -0.0080 O.2     1  UNL1       -0.5170
     28 O          22.8245   73.5962   -1.2502 O.3     1  UNL1       -0.2858
     29 O          22.3478   75.6388   -2.3501 O.3     1  UNL1       -0.3226
     30 O          25.8909   74.5187   -4.1556 O.3     1  UNL1       -0.3794
     31 O          23.8075   72.5399   -3.6281 O.3     1  UNL1       -0.3775
     32 O          25.8745   76.6333   -2.1608 O.3     1  UNL1       -0.3792
     33 C          24.9441   74.6151   -3.0915 C.3     1  UNL1        0.1718
     34 C          23.6340   73.9473   -3.5102 C.3     1  UNL1        0.1968
     35 C          24.7145   76.0989   -2.7958 C.3     1  UNL1        0.1723
     36 C          22.5270   74.2292   -2.4934 C.3     1  UNL1        0.2706
     37 C          23.5157   76.3043   -1.8743 C.3     1  UNL1        0.1830
     38 H          26.0527   73.5844   -4.3610 H       1  UNL1        0.2105
     39 H          24.5087   72.3538   -4.2715 H       1  UNL1        0.2106
     40 H          26.6448   76.5088   -2.7370 H       1  UNL1        0.2106
     41 O          22.6824   78.1321   -3.0851 O.co2   1  UNL1       -0.5466
     42 O          23.1274   78.4652   -0.8738 O.co2   1  UNL1       -0.5466
     43 C          23.1001   77.7393   -1.8563 C.2     1  UNL1        0.0799
@<TRIPOS>UNITY_ATOM_ATTR
2 1
charge -1
26 1
charge -1
41 1
charge -1
@<TRIPOS>BOND
     1     1     4    1
     2     1    24    1
     3     1     2    1
     4     1     3    2
     5    25    28    1
     6    25    24    1
     7    25    26    1
     8    25    27    2
     9     6    11    1
    10     6    12    1
    11    29    36    1
    12    29    37    1
    13     7     9    1
    14     7    13    1
    15     8    10    1
    16     8    14    1
    17     4     5    1
    18    28    36    1
    19    30    33    1
    20    30    38    1
    21    31    34    1
    22    31    39    1
    23    32    35    1
    24    32    40    1
    25    41    43   ar
    26    15    19    2
    27    42    43   ar
    28    16    22    2
    29    17    12    1
    30    17    19   ar
    31    17    20   ar
    32    18    19   ar
    33    18    22   ar
    34    18    23    1
    35     9    10    1
    36     9    11    1
    37    10    12    1
    38    11     5    1
    39    33    34    1
    40    33    35    1
    41    34    36    1
    42    35    37    1
    43    37    43    1
    44    20    21   ar
    45    21    22   ar
@<TRIPOS>MOLECULE
*****
 43 45 0 0 0
SMALL
GASTEIGER

@<TRIPOS>ATOM
      1 P          22.7662   71.3543   -2.1026 P.3     1  UNL1        0.2189
      2 O          23.1721   70.6956   -3.5240 O.co2   1  UNL1       -0.4371
      3 O          23.1554   70.5497   -0.8972 O.2     1  UNL1       -0.5170
      4 O          21.1867   71.6691   -2.2572 O.3     1  UNL1       -0.3112
      5 C          20.5407   71.3100   -3.4648 C.3     1  UNL1        0.1811
      6 O          18.6206   72.1605   -4.6341 O.3     1  UNL1       -0.3308
      7 O          16.9754   70.9090   -2.4618 O.3     1  UNL1       -0.3794
      8 O          16.7405   69.1108   -4.4982 O.3     1  UNL1       -0.3779
      9 C          18.1831   70.4422   -3.0635 C.3     1  UNL1        0.1713
     10 C          17.9045   69.9093   -4.4530 C.3     1  UNL1        0.1895
     11 C          19.0603   71.6518   -3.3561 C.3     1  UNL1        0.1764
     12 C          17.7673   71.1891   -5.2599 C.3     1  UNL1        0.2383
     13 H          16.3985   70.1538   -2.2656 H       1  UNL1        0.2105
     14 H          16.8782   68.3084   -3.9699 H       1  UNL1        0.2106
     15 O          16.0539   70.3517   -7.3431 O.2     1  UNL1       -0.2464
     16 O          19.4372   70.5809  -10.4647 O.2     1  UNL1       -0.2670
     17 N          18.1743   71.0216   -6.6264 N.ar    1  UNL1       -0.2551
     18 N          17.7409   70.4657   -8.8956 N.ar    1  UNL1       -0.2743
     19 C          17.2351   70.5964   -7.5955 C.ar    1  UNL1        0.3323
     20 C          19.4892   71.2790   -6.9950 C.ar    1  UNL1        0.0869
     21 C          19.9564   71.1500   -8.2383 C.ar    1  UNL1        0.0795
     22 C          19.0401   70.7093   -9.3105 C.ar    1  UNL1        0.2626
     23 H          17.1062   70.1689   -9.5873 H       1  UNL1        0.1734
     24 O          23.4384   72.8224   -2.1779 O.3     1  UNL1       -0.2703
     25 P          23.0495   74.2070   -1.4394 P.3     1  UNL1        0.2208
     26 O          21.8890   74.8187   -2.3877 O.co2   1  UNL1       -0.4371
     27 O          24.2112   75.1300   -1.2100 O.2     1  UNL1       -0.5170
     28 O          22.2803   73.7524   -0.0962 O.3     1  UNL1       -0.2858
     29 O          22.7078   75.2057    1.7243 O.3     1  UNL1       -0.3226
     30 O          20.5645   72.1813    3.5484 O.3     1  UNL1       -0.3794
     31 O          22.6229   71.5538    1.5726 O.3     1  UNL1       -0.3775
     32 O          19.2933   74.7335    2.9814 O.3     1  UNL1       -0.3792
     33 C          20.9419   73.0496    2.4799 C.3     1  UNL1        0.1718
     34 C          22.4193   72.8395    2.1473 C.3     1  UNL1        0.1968
     35 C          20.6980   74.4908    2.9330 C.3     1  UNL1        0.1723
     36 C          22.9173   73.9060    1.1709 C.3     1  UNL1        0.2706
     37 C          21.3332   75.4918    1.9722 C.3     1  UNL1        0.1830
     38 H          20.7108   71.2596    3.2833 H       1  UNL1        0.2105
     39 H          22.3088   70.8722    2.1867 H       1  UNL1        0.2106
     40 H          18.8769   74.1028    3.5894 H       1  UNL1        0.2106
     41 O          20.1252   77.3287    2.7899 O.co2   1  UNL1       -0.5466
     42 O          22.4002   77.4664    2.8576 O.co2   1  UNL1       -0.5466
     43 C          21.3788   76.8556    2.5809 C.2     1  UNL1        0.0799
@<TRIPOS>UNITY_ATOM_ATTR
2 1
charge -1
26 1
charge -1
41 1
charge -1
@<TRIPOS>BOND
     1     1     4    1
     2     1    24    1
     3     1     2    1
     4     1     3    2
     5    25    28    1
     6    25    24    1
     7    25    26    1
     8    25    27    2
     9     6    11    1
    10     6    12    1
    11    29    36    1
    12    29    37    1
    13     7     9    1
    14     7    13    1
    15     8    10    1
    16     8    14    1
    17     4     5    1
    18    28    36    1
    19    30    33    1
    20    30    38    1
    21    31    34    1
    22    31    39    1
    23    32    35    1
    24    32    40    1
    25    41    43   ar
    26    15    19    2
    27    42    43   ar
    28    16    22    2
    29    17    12    1
    30    17    19   ar
    31    17    20   ar
    32    18    19   ar
    33    18    22   ar
    34    18    23    1
    35     9    10    1
    36     9    11    1
    37    10    12    1
    38    11     5    1
    39    33    34    1
    40    33    35    1
    41    34    36    1
    42    35    37    1
    43    37    43    1
    44    20    21   ar
    45    21    22   ar
@<TRIPOS>MOLECULE
*****
 43 45 0 0 0
SMALL
GASTEIGER

@<TRIPOS>ATOM
      1 P          21.8586   70.1425   -1.0465 P.3     1  UNL1        0.2189
      2 O          23.0716   70.9122   -1.7915 O.co2   1  UNL1       -0.4371
      3 O          22.2832   69.1533   -0.0010 O.2     1  UNL1       -0.5170
      4 O          20.9736   69.5442   -2.2617 O.3     1  UNL1       -0.3112
      5 C          20.7121   70.3728   -3.3795 C.3     1  UNL1        0.1811
      6 O          19.0234   71.7250   -4.4272 O.3     1  UNL1       -0.3308
      7 O          17.1472   70.6698   -2.3397 O.3     1  UNL1       -0.3794
      8 O          16.5206   69.1597   -4.5221 O.3     1  UNL1       -0.3779
      9 C          18.2222   70.0075   -3.0062 C.3     1  UNL1        0.1713
     10 C          17.8314   69.6774   -4.4312 C.3     1  UNL1        0.1895
     11 C          19.3428   71.0181   -3.2091 C.3     1  UNL1        0.1764
     12 C          17.9770   71.0245   -5.1183 C.3     1  UNL1        0.2383
     13 H          16.4190   70.0439   -2.1989 H       1  UNL1        0.2105
     14 H          16.4798   68.3018   -4.0701 H       1  UNL1        0.2106
     15 O          16.1510   70.4349   -7.1906 O.2     1  UNL1       -0.2464
     16 O          19.4633   70.5617  -10.3931 O.2     1  UNL1       -0.2670
     17 N          18.3353   70.8977   -6.5026 N.ar    1  UNL1       -0.2551
     18 N          17.8026   70.4976   -8.7835 N.ar    1  UNL1       -0.2743
     19 C          17.3414   70.5991   -7.4644 C.ar    1  UNL1        0.3323
     20 C          19.6569   71.0700   -6.8956 C.ar    1  UNL1        0.0869
     21 C          20.0814   70.9703   -8.1568 C.ar    1  UNL1        0.0795
     22 C          19.1065   70.6599   -9.2230 C.ar    1  UNL1        0.2626
     23 H          17.1293   70.2884   -9.4707 H       1  UNL1        0.1734
     24 O          20.9442   71.3555   -0.4939 O.3     1  UNL1       -0.2703
     25 P          21.2221   72.9465   -0.4215 P.3     1  UNL1        0.2208
     26 O          22.6932   73.0349    0.2482 O.co2   1  UNL1       -0.4371
     27 O          20.1637   73.7240    0.3060 O.2     1  UNL1       -0.5170
     28 O          21.4455   73.3932   -1.9555 O.3     1  UNL1       -0.2858
     29 O          22.8236   75.2000   -2.6230 O.3     1  UNL1       -0.3226
     30 O          20.2448   74.8783   -5.8347 O.3     1  UNL1       -0.3794
     31 O          19.2416   74.6450   -3.1009 O.3     1  UNL1       -0.3775
     32 O          22.9733   73.8984   -6.0502 O.3     1  UNL1       -0.3792
     33 C          21.0202   74.4048   -4.7334 C.3     1  UNL1        0.1718
     34 C          20.5501   75.0842   -3.4470 C.3     1  UNL1        0.1968
     35 C          22.4873   74.7424   -5.0081 C.3     1  UNL1        0.1723
     36 C          21.5005   74.7791   -2.2884 C.3     1  UNL1        0.2706
     37 C          23.3495   74.5308   -3.7670 C.3     1  UNL1        0.1830
     38 H          19.3085   74.6748   -5.6823 H       1  UNL1        0.2105
     39 H          18.6333   74.8352   -3.8317 H       1  UNL1        0.2106
     40 H          22.4329   74.0233   -6.8460 H       1  UNL1        0.2106
     41 O          24.5718   76.5083   -4.0784 O.co2   1  UNL1       -0.5466
     42 O          25.7550   74.5633   -3.9511 O.co2   1  UNL1       -0.5466
     43 C          24.6914   75.1647   -3.9390 C.2     1  UNL1        0.0799
@<TRIPOS>UNITY_ATOM_ATTR
2 1
charge -1
26 1
charge -1
41 1
charge -1
@<TRIPOS>BOND
     1     1     4    1
     2     1    24    1
     3     1     2    1
     4     1     3    2
     5    25    28    1
     6    25    24    1
     7    25    26    1
     8    25    27    2
     9     6    11    1
    10     6    12    1
    11    29    36    1
    12    29    37    1
    13     7     9    1
    14     7    13    1
    15     8    10    1
    16     8    14    1
    17     4     5    1
    18    28    36    1
    19    30    33    1
    20    30    38    1
    21    31    34    1
    22    31    39    1
    23    32    35    1
    24    32    40    1
    25    41    43   ar
    26    15    19    2
    27    42    43   ar
    28    16    22    2
    29    17    12    1
    30    17    19   ar
    31    17    20   ar
    32    18    19   ar
    33    18    22   ar
    34    18    23    1
    35     9    10    1
    36     9    11    1
    37    10    12    1
    38    11     5    1
    39    33    34    1
    40    33    35    1
    41    34    36    1
    42    35    37    1
    43    37    43    1
    44    20    21   ar
    45    21    22   ar
@<TRIPOS>MOLECULE
*****
 43 45 0 0 0
SMALL
GASTEIGER

@<TRIPOS>ATOM
      1 P          21.5434   72.9153   -6.1245 P.3     1  UNL1        0.2189
      2 O          21.3033   74.4623   -5.7147 O.co2   1  UNL1       -0.4371
      3 O          22.7329   72.6707   -7.0061 O.2     1  UNL1       -0.5170
      4 O          20.1159   72.4462   -6.7244 O.3     1  UNL1       -0.3112
      5 C          19.7768   71.0728   -6.6673 C.3     1  UNL1        0.1811
      6 O          17.5795   70.8344   -7.6119 O.3     1  UNL1       -0.3308
      7 O          18.9230   70.9347  -10.2908 O.3     1  UNL1       -0.3794
      8 O          17.9402   73.4641  -10.0220 O.3     1  UNL1       -0.3779
      9 C          19.2467   71.6371   -9.0907 C.3     1  UNL1        0.1713
     10 C          18.2444   72.7450   -8.8452 C.3     1  UNL1        0.1895
     11 C          18.9853   70.7049   -7.9156 C.3     1  UNL1        0.1764
     12 C          17.0507   71.9763   -8.3046 C.3     1  UNL1        0.2383
     13 H          19.0820   71.5103  -11.0557 H       1  UNL1        0.2105
     14 H          18.7317   73.9363  -10.3261 H       1  UNL1        0.2106
     15 O          15.0462   73.8080   -9.0813 O.2     1  UNL1       -0.2464
     16 O          14.1032   74.9114   -4.7067 O.2     1  UNL1       -0.2670
     17 N          16.2660   72.7555   -7.3893 N.ar    1  UNL1       -0.2551
     18 N          14.5792   74.3566   -6.9018 N.ar    1  UNL1       -0.2743
     19 C          15.2843   73.6470   -7.8829 C.ar    1  UNL1        0.3323
     20 C          16.4707   72.6316   -6.0205 C.ar    1  UNL1        0.0869
     21 C          15.7906   73.3145   -5.0975 C.ar    1  UNL1        0.0795
     22 C          14.7475   74.2678   -5.5295 C.ar    1  UNL1        0.2626
     23 H          13.8919   74.9849   -7.2214 H       1  UNL1        0.1734
     24 O          21.6003   72.1656   -4.6936 O.3     1  UNL1       -0.2703
     25 P          22.7624   72.1076   -3.5711 P.3     1  UNL1        0.2208
     26 O          23.8286   73.2117   -4.0852 O.co2   1  UNL1       -0.4371
     27 O          23.3433   70.7400   -3.3563 O.2     1  UNL1       -0.5170
     28 O          22.0959   72.7657   -2.2576 O.3     1  UNL1       -0.2858
     29 O          21.5929   70.9937   -0.7690 O.3     1  UNL1       -0.3226
     30 O          20.3475   74.2868    1.3927 O.3     1  UNL1       -0.3794
     31 O          19.7828   74.0925   -1.4670 O.3     1  UNL1       -0.3775
     32 O          22.8369   72.9495    2.0752 O.3     1  UNL1       -0.3792
     33 C          21.1582   73.5694    0.4619 C.3     1  UNL1        0.1718
     34 C          20.2822   73.0266   -0.6676 C.3     1  UNL1        0.1968
     35 C          21.8335   72.4188    1.2116 C.3     1  UNL1        0.1723
     36 C          21.0705   72.0641   -1.5569 C.3     1  UNL1        0.2706
     37 C          22.4902   71.4351    0.2474 C.3     1  UNL1        0.1830
     38 H          19.9082   75.0231    0.9387 H       1  UNL1        0.2105
     39 H          19.2818   74.7073   -0.9090 H       1  UNL1        0.2106
     40 H          22.4320   73.5773    2.6939 H       1  UNL1        0.2106
     41 O          22.7549   69.1089    0.1061 O.co2   1  UNL1       -0.5466
     42 O          23.1939   70.0852    2.1193 O.co2   1  UNL1       -0.5466
     43 C          22.8528   70.1667    0.9488 C.2     1  UNL1        0.0799
@<TRIPOS>UNITY_ATOM_ATTR
2 1
charge -1
26 1
charge -1
41 1
charge -1
@<TRIPOS>BOND
     1     1     4    1
     2     1    24    1
     3     1     2    1
     4     1     3    2
     5    25    28    1
     6    25    24    1
     7    25    26    1
     8    25    27    2
     9     6    11    1
    10     6    12    1
    11    29    36    1
    12    29    37    1
    13     7     9    1
    14     7    13    1
    15     8    10    1
    16     8    14    1
    17     4     5    1
    18    28    36    1
    19    30    33    1
    20    30    38    1
    21    31    34    1
    22    31    39    1
    23    32    35    1
    24    32    40    1
    25    41    43   ar
    26    15    19    2
    27    42    43   ar
    28    16    22    2
    29    17    12    1
    30    17    19   ar
    31    17    20   ar
    32    18    19   ar
    33    18    22   ar
    34    18    23    1
    35     9    10    1
    36     9    11    1
    37    10    12    1
    38    11     5    1
    39    33    34    1
    40    33    35    1
    41    34    36    1
    42    35    37    1
    43    37    43    1
    44    20    21   ar
    45    21    22   ar
@<TRIPOS>MOLECULE
*****
 43 45 0 0 0
SMALL
GASTEIGER

@<TRIPOS>ATOM
      1 P          22.4627   72.8678   -4.4222 P.3     1  UNL1        0.2189
      2 O          22.8114   72.7991   -6.0010 O.co2   1  UNL1       -0.4371
      3 O          23.2968   71.9763   -3.5497 O.2     1  UNL1       -0.5170
      4 O          20.8660   72.6121   -4.3654 O.3     1  UNL1       -0.3112
      5 C          20.3613   71.6975   -3.4098 C.3     1  UNL1        0.1811
      6 O          18.3641   72.3895   -4.5543 O.3     1  UNL1       -0.3308
      7 O          16.8557   70.8995   -2.4338 O.3     1  UNL1       -0.3794
      8 O          16.8048   69.1611   -4.5341 O.3     1  UNL1       -0.3779
      9 C          18.1046   70.5801   -3.0478 C.3     1  UNL1        0.1713
     10 C          17.8813   70.0719   -4.4564 C.3     1  UNL1        0.1895
     11 C          18.8537   71.8826   -3.2939 C.3     1  UNL1        0.1764
     12 C          17.6141   71.3593   -5.2174 C.3     1  UNL1        0.2383
     13 H          16.3589   70.0829   -2.2667 H       1  UNL1        0.2105
     14 H          17.0238   68.3584   -4.0344 H       1  UNL1        0.2106
     15 O          16.0454   72.1836   -7.4165 O.2     1  UNL1       -0.2464
     16 O          19.3330   71.0219  -10.4308 O.2     1  UNL1       -0.2670
     17 N          18.0356   71.2834   -6.5876 N.ar    1  UNL1       -0.2551
     18 N          17.6839   71.6033   -8.9158 N.ar    1  UNL1       -0.2743
     19 C          17.1711   71.7240   -7.6175 C.ar    1  UNL1        0.3323
     20 C          19.2923   70.7791   -6.8998 C.ar    1  UNL1        0.0869
     21 C          19.7672   70.6703   -8.1421 C.ar    1  UNL1        0.0795
     22 C          18.9266   71.1076   -9.2759 C.ar    1  UNL1        0.2626
     23 H          17.0994   71.9017   -9.6497 H       1  UNL1        0.1734
     24 O          22.5901   74.4448   -4.0907 O.3     1  UNL1       -0.2703
     25 P          23.7365   75.5198   -4.4698 P.3     1  UNL1        0.2208
     26 O          25.1092   74.6936   -4.2385 O.co2   1  UNL1       -0.4371
     27 O          23.6523   76.8067   -3.7012 O.2     1  UNL1       -0.5170
     28 O          23.6271   75.6876   -6.0705 O.3     1  UNL1       -0.2858
     29 O          25.0661   76.8580   -7.5431 O.3     1  UNL1       -0.3226
     30 O          21.4258   77.2163   -9.4635 O.3     1  UNL1       -0.3794
     31 O          21.6092   77.5367   -6.5656 O.3     1  UNL1       -0.3775
     32 O          23.4189   75.3450  -10.4517 O.3     1  UNL1       -0.3792
     33 C          22.4121   76.5844   -8.6475 C.3     1  UNL1        0.1718
     34 C          22.7267   77.4733   -7.4441 C.3     1  UNL1        0.1968
     35 C          23.6671   76.3763   -9.4981 C.3     1  UNL1        0.1723
     36 C          23.9365   76.9428   -6.6735 C.3     1  UNL1        0.2706
     37 C          24.8610   75.9695   -8.6393 C.3     1  UNL1        0.1830
     38 H          20.6189   77.3588   -8.9440 H       1  UNL1        0.2105
     39 H          20.8378   77.8723   -7.0480 H       1  UNL1        0.2106
     40 H          22.6611   75.5915  -11.0047 H       1  UNL1        0.2106
     41 O          27.1121   75.3420   -8.8404 O.co2   1  UNL1       -0.5466
     42 O          26.2834   76.7630  -10.4194 O.co2   1  UNL1       -0.5466
     43 C          26.1348   76.0892   -9.4110 C.2     1  UNL1        0.0799
@<TRIPOS>UNITY_ATOM_ATTR
2 1
charge -1
26 1
charge -1
41 1
charge -1
@<TRIPOS>BOND
     1     1     4    1
     2     1    24    1
     3     1     2    1
     4     1     3    2
     5    25    28    1
     6    25    24    1
     7    25    26    1
     8    25    27    2
     9     6    11    1
    10     6    12    1
    11    29    36    1
    12    29    37    1
    13     7     9    1
    14     7    13    1
    15     8    10    1
    16     8    14    1
    17     4     5    1
    18    28    36    1
    19    30    33    1
    20    30    38    1
    21    31    34    1
    22    31    39    1
    23    32    35    1
    24    32    40    1
    25    41    43   ar
    26    15    19    2
    27    42    43   ar
    28    16    22    2
    29    17    12    1
    30    17    19   ar
    31    17    20   ar
    32    18    19   ar
    33    18    22   ar
    34    18    23    1
    35     9    10    1
    36     9    11    1
    37    10    12    1
    38    11     5    1
    39    33    34    1
    40    33    35    1
    41    34    36    1
    42    35    37    1
    43    37    43    1
    44    20    21   ar
    45    21    22   ar
@<TRIPOS>MOLECULE
*****
 43 45 0 0 0
SMALL
GASTEIGER

@<TRIPOS>ATOM
      1 P          22.1480   73.4007   -5.3304 P.3     1  UNL1        0.2189
      2 O          22.2765   74.9410   -5.8098 O.co2   1  UNL1       -0.4371
      3 O          23.4212   72.7851   -4.8286 O.2     1  UNL1       -0.5170
      4 O          21.4576   72.6578   -6.5911 O.3     1  UNL1       -0.3112
      5 C          20.7589   73.4435   -7.5392 C.3     1  UNL1        0.1811
      6 O          19.9425   71.2205   -7.9509 O.3     1  UNL1       -0.3308
      7 O          18.4018   72.4091  -10.2323 O.3     1  UNL1       -0.3794
      8 O          16.5002   72.1624   -8.2934 O.3     1  UNL1       -0.3779
      9 C          18.6973   72.9689   -8.9525 C.3     1  UNL1        0.1713
     10 C          17.8434   72.3173   -7.8855 C.3     1  UNL1        0.1895
     11 C          20.0980   72.5221   -8.5565 C.3     1  UNL1        0.1764
     12 C          18.5504   70.9878   -7.6842 C.3     1  UNL1        0.2383
     13 H          17.5115   72.6807  -10.5066 H       1  UNL1        0.2105
     14 H          16.0942   73.0365   -8.4078 H       1  UNL1        0.2106
     15 O          16.2042   69.7857   -6.6707 O.2     1  UNL1       -0.2464
     16 O          18.1190   69.1102   -2.5328 O.2     1  UNL1       -0.2670
     17 N          18.4084   70.4889   -6.3456 N.ar    1  UNL1       -0.2551
     18 N          17.1598   69.4513   -4.6104 N.ar    1  UNL1       -0.2743
     19 C          17.1872   69.9029   -5.9365 C.ar    1  UNL1        0.3323
     20 C          19.4709   70.5808   -5.4548 C.ar    1  UNL1        0.0869
     21 C          19.4298   70.1458   -4.1939 C.ar    1  UNL1        0.0795
     22 C          18.1903   69.5214   -3.6870 C.ar    1  UNL1        0.2626
     23 H          16.3194   69.0415   -4.3021 H       1  UNL1        0.1734
     24 O          20.9533   73.4575   -4.2431 O.3     1  UNL1       -0.2703
     25 P          20.9212   74.0263   -2.7301 P.3     1  UNL1        0.2208
     26 O          19.3585   74.3813   -2.5016 O.co2   1  UNL1       -0.4371
     27 O          21.8583   75.1728   -2.4833 O.2     1  UNL1       -0.5170
     28 O          21.1851   72.7339   -1.8014 O.3     1  UNL1       -0.2858
     29 O          22.9973   73.2107   -0.3531 O.3     1  UNL1       -0.3226
     30 O          22.0675   69.3293    0.7136 O.3     1  UNL1       -0.3794
     31 O          22.1022   70.1247   -2.0972 O.3     1  UNL1       -0.3775
     32 O          21.2893   71.5411    2.4321 O.3     1  UNL1       -0.3792
     33 C          21.8004   70.6533    0.2514 C.3     1  UNL1        0.1718
     34 C          22.5972   70.9198   -1.0260 C.3     1  UNL1        0.1968
     35 C          22.2167   71.6315    1.3522 C.3     1  UNL1        0.1723
     36 C          22.5179   72.3947   -1.4225 C.3     1  UNL1        0.2706
     37 C          22.2332   73.0697    0.8425 C.3     1  UNL1        0.1830
     38 H          21.8109   68.6901    0.0303 H       1  UNL1        0.2105
     39 H          22.1493   69.1876   -1.8523 H       1  UNL1        0.2106
     40 H          21.2691   70.6305    2.7656 H       1  UNL1        0.2106
     41 O          22.7724   73.5339    3.0775 O.co2   1  UNL1       -0.5466
     42 O          23.5979   74.9502    1.4926 O.co2   1  UNL1       -0.5466
     43 C          22.9454   73.9650    1.8034 C.2     1  UNL1        0.0799
@<TRIPOS>UNITY_ATOM_ATTR
2 1
charge -1
26 1
charge -1
41 1
charge -1
@<TRIPOS>BOND
     1     1     4    1
     2     1    24    1
     3     1     2    1
     4     1     3    2
     5    25    28    1
     6    25    24    1
     7    25    26    1
     8    25    27    2
     9     6    11    1
    10     6    12    1
    11    29    36    1
    12    29    37    1
    13     7     9    1
    14     7    13    1
    15     8    10    1
    16     8    14    1
    17     4     5    1
    18    28    36    1
    19    30    33    1
    20    30    38    1
    21    31    34    1
    22    31    39    1
    23    32    35    1
    24    32    40    1
    25    41    43   ar
    26    15    19    2
    27    42    43   ar
    28    16    22    2
    29    17    12    1
    30    17    19   ar
    31    17    20   ar
    32    18    19   ar
    33    18    22   ar
    34    18    23    1
    35     9    10    1
    36     9    11    1
    37    10    12    1
    38    11     5    1
    39    33    34    1
    40    33    35    1
    41    34    36    1
    42    35    37    1
    43    37    43    1
    44    20    21   ar
    45    21    22   ar
@<TRIPOS>MOLECULE
*****
 43 45 0 0 0
SMALL
GASTEIGER

@<TRIPOS>ATOM
      1 P          20.2195   70.7527   -2.2982 P.3     1  UNL1        0.2189
      2 O          21.2925   71.1387   -3.4466 O.co2   1  UNL1       -0.4371
      3 O          19.8238   69.3057   -2.2615 O.2     1  UNL1       -0.5170
      4 O          19.0121   71.8057   -2.5249 O.3     1  UNL1       -0.3112
      5 C          18.4737   71.9471   -3.8266 C.3     1  UNL1        0.1811
      6 O          19.3354   73.4599   -5.4840 O.3     1  UNL1       -0.3308
      7 O          17.3754   75.4588   -4.4097 O.3     1  UNL1       -0.3794
      8 O          16.1328   74.5582   -6.6637 O.3     1  UNL1       -0.3779
      9 C          17.2354   74.0457   -4.5580 C.3     1  UNL1        0.1713
     10 C          17.0380   73.6888   -6.0160 C.3     1  UNL1        0.1895
     11 C          18.5827   73.4055   -4.2528 C.3     1  UNL1        0.1764
     12 C          18.4508   73.8026   -6.5627 C.3     1  UNL1        0.2383
     13 H          16.5270   75.8899   -4.5996 H       1  UNL1        0.2105
     14 H          15.2481   74.4478   -6.2803 H       1  UNL1        0.2106
     15 O          17.9544   74.4386   -9.2692 O.2     1  UNL1       -0.2464
     16 O          19.3933   70.2987  -10.6957 O.2     1  UNL1       -0.2670
     17 N          18.6868   72.9096   -7.6616 N.ar    1  UNL1       -0.2551
     18 N          18.6706   72.3757   -9.9770 N.ar    1  UNL1       -0.2743
     19 C          18.4035   73.3270   -8.9836 C.ar    1  UNL1        0.3323
     20 C          19.1943   71.6378   -7.4253 C.ar    1  UNL1        0.0869
     21 C          19.4438   70.7421   -8.3825 C.ar    1  UNL1        0.0795
     22 C          19.1747   71.0987   -9.7910 C.ar    1  UNL1        0.2626
     23 H          18.4794   72.6427  -10.9052 H       1  UNL1        0.1734
     24 O          20.9238   71.2927   -0.9472 O.3     1  UNL1       -0.2703
     25 P          22.0338   70.6165    0.0143 P.3     1  UNL1        0.2208
     26 O          23.3231   70.4721   -0.9537 O.co2   1  UNL1       -0.4371
     27 O          21.5938   69.3316    0.6540 O.2     1  UNL1       -0.5170
     28 O          22.4356   71.7802    1.0568 O.3     1  UNL1       -0.2858
     29 O          21.1844   72.9402    2.6994 O.3     1  UNL1       -0.3226
     30 O          23.7225   75.8989    1.3313 O.3     1  UNL1       -0.3794
     31 O          22.4512   74.0546   -0.5441 O.3     1  UNL1       -0.3775
     32 O          24.2123   74.6290    3.9000 O.3     1  UNL1       -0.3792
     33 C          23.3323   74.5652    1.6580 C.3     1  UNL1        0.1718
     34 C          22.1071   74.1734    0.8315 C.3     1  UNL1        0.1968
     35 C          23.0027   74.5214    3.1518 C.3     1  UNL1        0.1723
     36 C          21.5228   72.8454    1.3152 C.3     1  UNL1        0.2706
     37 C          22.3090   73.2163    3.5312 C.3     1  UNL1        0.1830
     38 H          23.9367   75.9510    0.3864 H       1  UNL1        0.2105
     39 H          22.8229   74.8936   -0.8575 H       1  UNL1        0.2106
     40 H          24.6637   75.4555    3.6677 H       1  UNL1        0.2106
     41 O          22.5958   72.9400    5.8427 O.co2   1  UNL1       -0.5466
     42 O          20.5616   73.6822    5.1284 O.co2   1  UNL1       -0.5466
     43 C          21.7028   73.3142    4.8933 C.2     1  UNL1        0.0799
@<TRIPOS>UNITY_ATOM_ATTR
2 1
charge -1
26 1
charge -1
41 1
charge -1
@<TRIPOS>BOND
     1     1     4    1
     2     1    24    1
     3     1     2    1
     4     1     3    2
     5    25    28    1
     6    25    24    1
     7    25    26    1
     8    25    27    2
     9     6    11    1
    10     6    12    1
    11    29    36    1
    12    29    37    1
    13     7     9    1
    14     7    13    1
    15     8    10    1
    16     8    14    1
    17     4     5    1
    18    28    36    1
    19    30    33    1
    20    30    38    1
    21    31    34    1
    22    31    39    1
    23    32    35    1
    24    32    40    1
    25    41    43   ar
    26    15    19    2
    27    42    43   ar
    28    16    22    2
    29    17    12    1
    30    17    19   ar
    31    17    20   ar
    32    18    19   ar
    33    18    22   ar
    34    18    23    1
    35     9    10    1
    36     9    11    1
    37    10    12    1
    38    11     5    1
    39    33    34    1
    40    33    35    1
    41    34    36    1
    42    35    37    1
    43    37    43    1
    44    20    21   ar
    45    21    22   ar
@<TRIPOS>MOLECULE
*****
 43 45 0 0 0
SMALL
GASTEIGER

@<TRIPOS>ATOM
      1 P          22.7843   74.1589   -4.0173 P.3     1  UNL1        0.2189
      2 O          23.3452   72.7837   -3.3745 O.co2   1  UNL1       -0.4371
      3 O          23.8297   75.0452   -4.6283 O.2     1  UNL1       -0.5170
      4 O          21.9137   74.8189   -2.8238 O.3     1  UNL1       -0.3112
      5 C          20.5334   75.0474   -3.0405 C.3     1  UNL1        0.1811
      6 O          19.5907   74.2735   -0.9692 O.3     1  UNL1       -0.3308
      7 O          19.9875   77.0689    0.0407 O.3     1  UNL1       -0.3794
      8 O          22.1005   75.7352    1.1329 O.3     1  UNL1       -0.3779
      9 C          20.8051   76.3034   -0.8449 C.3     1  UNL1        0.1713
     10 C          21.5599   75.2408   -0.0745 C.3     1  UNL1        0.1895
     11 C          19.8877   75.4669   -1.7262 C.3     1  UNL1        0.1764
     12 C          20.4844   74.1921    0.1525 C.3     1  UNL1        0.2383
     13 H          20.5516   77.6118    0.6141 H       1  UNL1        0.2105
     14 H          22.7802   76.3991    0.9348 H       1  UNL1        0.2106
     15 O          21.9263   73.1744    2.3573 O.2     1  UNL1       -0.2464
     16 O          22.4995   69.0777    0.3244 O.2     1  UNL1       -0.2670
     17 N          21.0218   72.8630    0.2258 N.ar    1  UNL1       -0.2551
     18 N          22.2113   71.1353    1.3423 N.ar    1  UNL1       -0.2743
     19 C          21.7307   72.4509    1.3790 C.ar    1  UNL1        0.3323
     20 C          20.8433   71.9832   -0.8349 C.ar    1  UNL1        0.0869
     21 C          21.3072   70.7321   -0.8552 C.ar    1  UNL1        0.0795
     22 C          22.0596   70.2234    0.3103 C.ar    1  UNL1        0.2626
     23 H          22.7098   70.8264    2.1331 H       1  UNL1        0.1734
     24 O          21.6528   73.6419   -5.0495 O.3     1  UNL1       -0.2703
     25 P          21.4661   73.8971   -6.6349 P.3     1  UNL1        0.2208
     26 O          22.6132   72.9665   -7.2970 O.co2   1  UNL1       -0.4371
     27 O          21.5328   75.3418   -7.0381 O.2     1  UNL1       -0.5170
     28 O          20.0796   73.1614   -7.0074 O.3     1  UNL1       -0.2858
     29 O          18.8002   71.5381   -5.8511 O.3     1  UNL1       -0.3226
     30 O          18.2044   70.4308   -9.7864 O.3     1  UNL1       -0.3794
     31 O          20.8551   71.2372   -8.8600 O.3     1  UNL1       -0.3775
     32 O          16.1048   71.8121   -8.3253 O.3     1  UNL1       -0.3792
     33 C          18.4357   71.3379   -8.7086 C.3     1  UNL1        0.1718
     34 C          19.7457   70.9766   -8.0079 C.3     1  UNL1        0.1968
     35 C          17.2616   71.2234   -7.7338 C.3     1  UNL1        0.1723
     36 C          19.9127   71.7754   -6.7145 C.3     1  UNL1        0.2706
     37 C          17.5564   71.9411   -6.4198 C.3     1  UNL1        0.1830
     38 H          18.9381   70.4860  -10.4188 H       1  UNL1        0.2105
     39 H          20.7555   70.7337   -9.6828 H       1  UNL1        0.2106
     40 H          15.9064   71.3645   -9.1626 H       1  UNL1        0.2106
     41 O          16.7346   70.2576   -5.0084 O.co2   1  UNL1       -0.5466
     42 O          15.7201   72.2965   -4.8957 O.co2   1  UNL1       -0.5466
     43 C          16.5663   71.5537   -5.3701 C.2     1  UNL1        0.0799
@<TRIPOS>UNITY_ATOM_ATTR
2 1
charge -1
26 1
charge -1
41 1
charge -1
@<TRIPOS>BOND
     1     1     4    1
     2     1    24    1
     3     1     2    1
     4     1     3    2
     5    25    28    1
     6    25    24    1
     7    25    26    1
     8    25    27    2
     9     6    11    1
    10     6    12    1
    11    29    36    1
    12    29    37    1
    13     7     9    1
    14     7    13    1
    15     8    10    1
    16     8    14    1
    17     4     5    1
    18    28    36    1
    19    30    33    1
    20    30    38    1
    21    31    34    1
    22    31    39    1
    23    32    35    1
    24    32    40    1
    25    41    43   ar
    26    15    19    2
    27    42    43   ar
    28    16    22    2
    29    17    12    1
    30    17    19   ar
    31    17    20   ar
    32    18    19   ar
    33    18    22   ar
    34    18    23    1
    35     9    10    1
    36     9    11    1
    37    10    12    1
    38    11     5    1
    39    33    34    1
    40    33    35    1
    41    34    36    1
    42    35    37    1
    43    37    43    1
    44    20    21   ar
    45    21    22   ar
@<TRIPOS>MOLECULE
*****
 43 45 0 0 0
SMALL
GASTEIGER

@<TRIPOS>ATOM
      1 P          23.1047   72.4320   -3.4658 P.3     1  UNL1        0.2189
      2 O          23.3208   70.8422   -3.2543 O.co2   1  UNL1       -0.4371
      3 O          24.2778   73.1578   -4.0564 O.2     1  UNL1       -0.5170
      4 O          22.6133   72.9537   -2.0152 O.3     1  UNL1       -0.3112
      5 C          22.3317   71.9954   -1.0118 C.3     1  UNL1        0.1811
      6 O          21.1252   72.2680    1.0492 O.3     1  UNL1       -0.3308
      7 O          19.0615   73.7235   -0.5676 O.3     1  UNL1       -0.3794
      8 O          20.4449   75.7600    0.6050 O.3     1  UNL1       -0.3779
      9 C          20.4819   73.7161   -0.7115 C.3     1  UNL1        0.1713
     10 C          21.1240   74.5418    0.3831 C.3     1  UNL1        0.1895
     11 C          20.9797   72.3143   -0.3868 C.3     1  UNL1        0.1764
     12 C          21.0444   73.6025    1.5745 C.3     1  UNL1        0.2383
     13 H          18.7203   74.6091   -0.7700 H       1  UNL1        0.2105
     14 H          20.5251   76.3228   -0.1817 H       1  UNL1        0.2106
     15 O          23.5604   74.6889    0.8917 O.2     1  UNL1       -0.2464
     16 O          25.0944   74.3310    5.2233 O.2     1  UNL1       -0.2670
     17 N          22.1195   73.8043    2.5042 N.ar    1  UNL1       -0.2551
     18 N          24.3224   74.5086    3.0496 N.ar    1  UNL1       -0.2743
     19 C          23.3435   74.3569    2.0587 C.ar    1  UNL1        0.3323
     20 C          21.9555   73.4581    3.8399 C.ar    1  UNL1        0.0869
     21 C          22.8977   73.6087    4.7728 C.ar    1  UNL1        0.0795
     22 C          24.2063   74.1785    4.3901 C.ar    1  UNL1        0.2626
     23 H          25.1838   74.8895    2.7630 H       1  UNL1        0.1734
     24 O          21.7550   72.4998   -4.3527 O.3     1  UNL1       -0.2703
     25 P          21.4267   73.2842   -5.7277 P.3     1  UNL1        0.2208
     26 O          22.6199   72.8143   -6.7155 O.co2   1  UNL1       -0.4371
     27 O          21.3019   74.7723   -5.5731 O.2     1  UNL1       -0.5170
     28 O          20.1081   72.5585   -6.3082 O.3     1  UNL1       -0.2858
     29 O          19.0956   70.4581   -5.8930 O.3     1  UNL1       -0.3226
     30 O          18.4881   70.8957   -9.9559 O.3     1  UNL1       -0.3794
     31 O          21.0486   71.6267   -8.7542 O.3     1  UNL1       -0.3775
     32 O          16.2894   71.3069   -8.0991 O.3     1  UNL1       -0.3792
     33 C          18.6445   71.3356   -8.6068 C.3     1  UNL1        0.1718
     34 C          20.0173   70.9098   -8.0856 C.3     1  UNL1        0.1968
     35 C          17.5351   70.6956   -7.7691 C.3     1  UNL1        0.1723
     36 C          20.1325   71.1586   -6.5811 C.3     1  UNL1        0.2706
     37 C          17.7883   70.8796   -6.2756 C.3     1  UNL1        0.1830
     38 H          19.1824   71.2898  -10.5072 H       1  UNL1        0.2105
     39 H          20.9813   71.4736   -9.7094 H       1  UNL1        0.2106
     40 H          16.1164   71.1971   -9.0472 H       1  UNL1        0.2106
     41 O          16.2988   69.0677   -6.2694 O.co2   1  UNL1       -0.5466
     42 O          16.7329   70.0642   -4.2650 O.co2   1  UNL1       -0.5466
     43 C          16.8995   69.9863   -5.4729 C.2     1  UNL1        0.0799
@<TRIPOS>UNITY_ATOM_ATTR
2 1
charge -1
26 1
charge -1
41 1
charge -1
@<TRIPOS>BOND
     1     1     4    1
     2     1    24    1
     3     1     2    1
     4     1     3    2
     5    25    28    1
     6    25    24    1
     7    25    26    1
     8    25    27    2
     9     6    11    1
    10     6    12    1
    11    29    36    1
    12    29    37    1
    13     7     9    1
    14     7    13    1
    15     8    10    1
    16     8    14    1
    17     4     5    1
    18    28    36    1
    19    30    33    1
    20    30    38    1
    21    31    34    1
    22    31    39    1
    23    32    35    1
    24    32    40    1
    25    41    43   ar
    26    15    19    2
    27    42    43   ar
    28    16    22    2
    29    17    12    1
    30    17    19   ar
    31    17    20   ar
    32    18    19   ar
    33    18    22   ar
    34    18    23    1
    35     9    10    1
    36     9    11    1
    37    10    12    1
    38    11     5    1
    39    33    34    1
    40    33    35    1
    41    34    36    1
    42    35    37    1
    43    37    43    1
    44    20    21   ar
    45    21    22   ar
@<TRIPOS>MOLECULE
*****
 43 45 0 0 0
SMALL
GASTEIGER

@<TRIPOS>ATOM
      1 P          19.9468   74.3762   -3.0253 P.3     1  UNL1        0.2189
      2 O          18.7863   75.4493   -3.3726 O.co2   1  UNL1       -0.4371
      3 O          20.9746   74.1839   -4.1017 O.2     1  UNL1       -0.5170
      4 O          19.1309   73.0493   -2.5879 O.3     1  UNL1       -0.3112
      5 C          17.8110   72.8774   -3.0705 C.3     1  UNL1        0.1811
      6 O          16.9724   71.0078   -4.3270 O.3     1  UNL1       -0.3308
      7 O          18.1575   69.2753   -2.1856 O.3     1  UNL1       -0.3794
      8 O          20.0019   69.0957   -4.1861 O.3     1  UNL1       -0.3779
      9 C          18.6488   70.4991   -2.7328 C.3     1  UNL1        0.1713
     10 C          19.2124   70.2648   -4.1184 C.3     1  UNL1        0.1895
     11 C          17.4541   71.3973   -3.0226 C.3     1  UNL1        0.1764
     12 C          17.9512   70.1682   -4.9597 C.3     1  UNL1        0.2383
     13 H          18.9029   68.6848   -1.9923 H       1  UNL1        0.2105
     14 H          20.7926   69.2071   -3.6344 H       1  UNL1        0.2106
     15 O          16.1499   69.7098   -7.0862 O.2     1  UNL1       -0.2464
     16 O          18.8351   71.9539  -10.0858 O.2     1  UNL1       -0.2670
     17 N          18.1548   70.6215   -6.3065 N.ar    1  UNL1       -0.2551
     18 N          17.4895   70.8271   -8.5784 N.ar    1  UNL1       -0.2743
     19 C          17.1883   70.3382   -7.3003 C.ar    1  UNL1        0.3323
     20 C          19.2996   71.3391   -6.6311 C.ar    1  UNL1        0.0869
     21 C          19.5728   71.7987   -7.8538 C.ar    1  UNL1        0.0795
     22 C          18.6148   71.5449   -8.9498 C.ar    1  UNL1        0.2626
     23 H          16.8325   70.6404   -9.2874 H       1  UNL1        0.1734
     24 O          20.5356   74.9200   -1.6216 O.3     1  UNL1       -0.2703
     25 P          22.0573   75.0785   -1.0990 P.3     1  UNL1        0.2208
     26 O          22.0446   76.5155   -0.3538 O.co2   1  UNL1       -0.4371
     27 O          23.0950   74.9498   -2.1763 O.2     1  UNL1       -0.5170
     28 O          22.1943   74.0020    0.0946 O.3     1  UNL1       -0.2858
     29 O          21.0517   71.9351   -0.0829 O.3     1  UNL1       -0.3226
     30 O          21.9755   72.0421    3.9425 O.3     1  UNL1       -0.3794
     31 O          21.0213   74.4424    2.5778 O.3     1  UNL1       -0.3775
     32 O          23.4860   70.3293    2.1437 O.3     1  UNL1       -0.3792
     33 C          22.1707   72.3060    2.5531 C.3     1  UNL1        0.1718
     34 C          21.0009   73.1335    2.0201 C.3     1  UNL1        0.1968
     35 C          22.2492   70.9633    1.8231 C.3     1  UNL1        0.1723
     36 C          21.0565   73.2409    0.4955 C.3     1  UNL1        0.2706
     37 C          22.1727   71.1465    0.3102 C.3     1  UNL1        0.1830
     38 H          21.9225   72.8810    4.4268 H       1  UNL1        0.2105
     39 H          20.9866   74.3819    3.5450 H       1  UNL1        0.2106
     40 H          23.5473   70.2070    3.1039 H       1  UNL1        0.2106
     41 O          22.5348   68.8291    0.2908 O.co2   1  UNL1       -0.5466
     42 O          21.2489   69.6949   -1.3813 O.co2   1  UNL1       -0.5466
     43 C          21.9192   69.8406   -0.3701 C.2     1  UNL1        0.0799
@<TRIPOS>UNITY_ATOM_ATTR
2 1
charge -1
26 1
charge -1
41 1
charge -1
@<TRIPOS>BOND
     1     1     4    1
     2     1    24    1
     3     1     2    1
     4     1     3    2
     5    25    28    1
     6    25    24    1
     7    25    26    1
     8    25    27    2
     9     6    11    1
    10     6    12    1
    11    29    36    1
    12    29    37    1
    13     7     9    1
    14     7    13    1
    15     8    10    1
    16     8    14    1
    17     4     5    1
    18    28    36    1
    19    30    33    1
    20    30    38    1
    21    31    34    1
    22    31    39    1
    23    32    35    1
    24    32    40    1
    25    41    43   ar
    26    15    19    2
    27    42    43   ar
    28    16    22    2
    29    17    12    1
    30    17    19   ar
    31    17    20   ar
    32    18    19   ar
    33    18    22   ar
    34    18    23    1
    35     9    10    1
    36     9    11    1
    37    10    12    1
    38    11     5    1
    39    33    34    1
    40    33    35    1
    41    34    36    1
    42    35    37    1
    43    37    43    1
    44    20    21   ar
    45    21    22   ar
@<TRIPOS>MOLECULE
*****
 43 45 0 0 0
SMALL
GASTEIGER

@<TRIPOS>ATOM
      1 P          22.0762   71.5681   -2.9199 P.3     1  UNL1        0.2189
      2 O          23.5342   71.3983   -3.6013 O.co2   1  UNL1       -0.4371
      3 O          21.1346   70.4214   -3.1442 O.2     1  UNL1       -0.5170
      4 O          21.5659   73.0098   -3.4483 O.3     1  UNL1       -0.3112
      5 C          20.6104   73.0478   -4.4923 C.3     1  UNL1        0.1811
      6 O          20.1246   71.8303   -6.5071 O.3     1  UNL1       -0.3308
      7 O          22.8517   72.6550   -7.4420 O.3     1  UNL1       -0.3794
      8 O          21.2190   74.4033   -8.7512 O.3     1  UNL1       -0.3779
      9 C          21.9081   73.3821   -6.6549 C.3     1  UNL1        0.1713
     10 C          20.7683   73.8717   -7.5229 C.3     1  UNL1        0.1895
     11 C          21.2053   72.3947   -5.7333 C.3     1  UNL1        0.1764
     12 C          19.9420   72.6093   -7.7001 C.3     1  UNL1        0.2383
     13 H          23.3134   73.2650   -8.0390 H       1  UNL1        0.2105
     14 H          21.7395   75.2054   -8.5849 H       1  UNL1        0.2106
     15 O          17.9977   70.6732   -8.3692 O.2     1  UNL1       -0.2464
     16 O          14.6061   73.7937   -8.3109 O.2     1  UNL1       -0.2670
     17 N          18.5436   72.8884   -7.8660 N.ar    1  UNL1       -0.2551
     18 N          16.3105   72.2294   -8.3405 N.ar    1  UNL1       -0.2743
     19 C          17.6505   71.8439   -8.2028 C.ar    1  UNL1        0.3323
     20 C          18.0696   74.1833   -7.6940 C.ar    1  UNL1        0.0869
     21 C          16.7895   74.5353   -7.8284 C.ar    1  UNL1        0.0795
     22 C          15.7915   73.5040   -8.1800 C.ar    1  UNL1        0.2626
     23 H          15.6702   71.5198   -8.5767 H       1  UNL1        0.1734
     24 O          22.4314   71.8542   -1.3692 O.3     1  UNL1       -0.2703
     25 P          21.4776   72.1701   -0.1026 P.3     1  UNL1        0.2208
     26 O          21.3419   70.7311    0.6261 O.co2   1  UNL1       -0.4371
     27 O          20.1666   72.8071   -0.4627 O.2     1  UNL1       -0.5170
     28 O          22.3963   73.0458    0.8932 O.3     1  UNL1       -0.2858
     29 O          21.4200   73.9849    2.8359 O.3     1  UNL1       -0.3226
     30 O          24.9280   76.1455    2.5295 O.3     1  UNL1       -0.3794
     31 O          23.3404   75.5542    0.1495 O.3     1  UNL1       -0.3775
     32 O          24.6793   74.0414    4.5199 O.3     1  UNL1       -0.3792
     33 C          24.0861   75.0010    2.3910 C.3     1  UNL1        0.1718
     34 C          22.9018   75.3432    1.4866 C.3     1  UNL1        0.1968
     35 C          23.5943   74.6042    3.7847 C.3     1  UNL1        0.1723
     36 C          21.8622   74.2217    1.4987 C.3     1  UNL1        0.2706
     37 C          22.4714   73.5738    3.7068 C.3     1  UNL1        0.1830
     38 H          25.2525   76.4160    1.6561 H       1  UNL1        0.2105
     39 H          24.0005   76.2644    0.1345 H       1  UNL1        0.2106
     40 H          25.4009   74.6871    4.5766 H       1  UNL1        0.2106
     41 O          22.6403   72.9832    5.9705 O.co2   1  UNL1       -0.5466
     42 O          20.6073   73.7059    5.2330 O.co2   1  UNL1       -0.5466
     43 C          21.7817   73.4401    5.0255 C.2     1  UNL1        0.0799
@<TRIPOS>UNITY_ATOM_ATTR
2 1
charge -1
26 1
charge -1
41 1
charge -1
@<TRIPOS>BOND
     1     1     4    1
     2     1    24    1
     3     1     2    1
     4     1     3    2
     5    25    28    1
     6    25    24    1
     7    25    26    1
     8    25    27    2
     9     6    11    1
    10     6    12    1
    11    29    36    1
    12    29    37    1
    13     7     9    1
    14     7    13    1
    15     8    10    1
    16     8    14    1
    17     4     5    1
    18    28    36    1
    19    30    33    1
    20    30    38    1
    21    31    34    1
    22    31    39    1
    23    32    35    1
    24    32    40    1
    25    41    43   ar
    26    15    19    2
    27    42    43   ar
    28    16    22    2
    29    17    12    1
    30    17    19   ar
    31    17    20   ar
    32    18    19   ar
    33    18    22   ar
    34    18    23    1
    35     9    10    1
    36     9    11    1
    37    10    12    1
    38    11     5    1
    39    33    34    1
    40    33    35    1
    41    34    36    1
    42    35    37    1
    43    37    43    1
    44    20    21   ar
    45    21    22   ar
@<TRIPOS>MOLECULE
*****
 43 45 0 0 0
SMALL
GASTEIGER

@<TRIPOS>ATOM
      1 P          19.5397   72.4315   -3.7513 P.3     1  UNL1        0.2189
      2 O          18.8144   71.5723   -2.5874 O.co2   1  UNL1       -0.4371
      3 O          19.3864   73.9193   -3.6296 O.2     1  UNL1       -0.5170
      4 O          18.9818   71.7774   -5.1220 O.3     1  UNL1       -0.3112
      5 C          17.7044   71.1671   -5.1089 C.3     1  UNL1        0.1811
      6 O          17.6352   72.7000   -6.9591 O.3     1  UNL1       -0.3308
      7 O          15.7754   70.7457   -8.2680 O.3     1  UNL1       -0.3794
      8 O          18.1527   70.2203   -9.4962 O.3     1  UNL1       -0.3779
      9 C          16.9033   70.4967   -7.4287 C.3     1  UNL1        0.1713
     10 C          18.1881   70.7513   -8.1881 C.3     1  UNL1        0.1895
     11 C          16.9435   71.5821   -6.3616 C.3     1  UNL1        0.1764
     12 C          18.2670   72.2684   -8.1748 C.3     1  UNL1        0.2383
     13 H          15.7287   70.0649   -8.9579 H       1  UNL1        0.2105
     14 H          18.1029   69.2521   -9.4509 H       1  UNL1        0.2106
     15 O          20.1204   71.7320  -10.2373 O.2     1  UNL1       -0.2464
     16 O          23.4325   74.1560   -8.1402 O.2     1  UNL1       -0.2670
     17 N          19.6203   72.7469   -8.1931 N.ar    1  UNL1       -0.2551
     18 N          21.7686   72.9390   -9.1903 N.ar    1  UNL1       -0.2743
     19 C          20.4699   72.4202   -9.2764 C.ar    1  UNL1        0.3323
     20 C          20.0928   73.5314   -7.1480 C.ar    1  UNL1        0.0869
     21 C          21.3332   74.0187   -7.0800 C.ar    1  UNL1        0.0795
     22 C          22.2846   73.7231   -8.1712 C.ar    1  UNL1        0.2626
     23 H          22.3791   72.7232   -9.9320 H       1  UNL1        0.1734
     24 O          21.0669   71.9050   -3.6928 O.3     1  UNL1       -0.2703
     25 P          21.7659   70.7763   -2.7703 P.3     1  UNL1        0.2208
     26 O          23.3368   70.9237   -3.1319 O.co2   1  UNL1       -0.4371
     27 O          21.2138   69.3937   -2.9644 O.2     1  UNL1       -0.5170
     28 O          21.6397   71.3423   -1.2649 O.3     1  UNL1       -0.2858
     29 O          23.3907   72.6748   -0.3888 O.3     1  UNL1       -0.3226
     30 O          21.3379   71.6244    3.0391 O.3     1  UNL1       -0.3794
     31 O          21.8175   69.6528    0.9374 O.3     1  UNL1       -0.3775
     32 O          21.0686   74.3021    1.9397 O.3     1  UNL1       -0.3792
     33 C          21.4867   71.9463    1.6563 C.3     1  UNL1        0.1718
     34 C          22.4260   70.9378    0.9943 C.3     1  UNL1        0.1968
     35 C          22.0682   73.3585    1.5593 C.3     1  UNL1        0.1723
     36 C          22.7911   71.3792   -0.4236 C.3     1  UNL1        0.2706
     37 C          22.5240   73.6769    0.1383 C.3     1  UNL1        0.1830
     38 H          20.9697   70.7310    3.1256 H       1  UNL1        0.2105
     39 H          21.5829   69.3666    1.8338 H       1  UNL1        0.2106
     40 H          20.7698   74.1104    2.8424 H       1  UNL1        0.2106
     41 O          24.1552   74.9260   -0.9934 O.co2   1  UNL1       -0.5466
     42 O          23.3780   75.7721    0.9762 O.co2   1  UNL1       -0.5466
     43 C          23.3771   74.9033    0.1171 C.2     1  UNL1        0.0799
@<TRIPOS>UNITY_ATOM_ATTR
2 1
charge -1
26 1
charge -1
41 1
charge -1
@<TRIPOS>BOND
     1     1     4    1
     2     1    24    1
     3     1     2    1
     4     1     3    2
     5    25    28    1
     6    25    24    1
     7    25    26    1
     8    25    27    2
     9     6    11    1
    10     6    12    1
    11    29    36    1
    12    29    37    1
    13     7     9    1
    14     7    13    1
    15     8    10    1
    16     8    14    1
    17     4     5    1
    18    28    36    1
    19    30    33    1
    20    30    38    1
    21    31    34    1
    22    31    39    1
    23    32    35    1
    24    32    40    1
    25    41    43   ar
    26    15    19    2
    27    42    43   ar
    28    16    22    2
    29    17    12    1
    30    17    19   ar
    31    17    20   ar
    32    18    19   ar
    33    18    22   ar
    34    18    23    1
    35     9    10    1
    36     9    11    1
    37    10    12    1
    38    11     5    1
    39    33    34    1
    40    33    35    1
    41    34    36    1
    42    35    37    1
    43    37    43    1
    44    20    21   ar
    45    21    22   ar
@<TRIPOS>MOLECULE
*****
 43 45 0 0 0
SMALL
GASTEIGER

@<TRIPOS>ATOM
      1 P          22.5960   73.0806   -4.5895 P.3     1  UNL1        0.2189
      2 O          21.8646   74.5096   -4.3849 O.co2   1  UNL1       -0.4371
      3 O          23.9939   73.0013   -4.0498 O.2     1  UNL1       -0.5170
      4 O          22.4361   72.7853   -6.1722 O.3     1  UNL1       -0.3112
      5 C          21.1873   73.0467   -6.7860 C.3     1  UNL1        0.1811
      6 O          19.1137   71.8309   -6.7740 O.3     1  UNL1       -0.3308
      7 O          20.4085   69.9697   -8.7364 O.3     1  UNL1       -0.3794
      8 O          18.8528   71.5358  -10.3375 O.3     1  UNL1       -0.3779
      9 C          20.5505   71.3842   -8.6034 C.3     1  UNL1        0.1713
     10 C          19.3129   72.0862   -9.1210 C.3     1  UNL1        0.1895
     11 C          20.5117   71.7228   -7.1195 C.3     1  UNL1        0.1764
     12 C          18.3329   71.8809   -7.9786 C.3     1  UNL1        0.2383
     13 H          20.4303   69.7292   -9.6763 H       1  UNL1        0.2105
     14 H          19.5114   71.6927  -11.0330 H       1  UNL1        0.2106
     15 O          15.8975   71.7158   -6.5578 O.2     1  UNL1       -0.2464
     16 O          14.7586   76.0476   -7.6453 O.2     1  UNL1       -0.2670
     17 N          17.3812   72.9506   -7.8740 N.ar    1  UNL1       -0.2551
     18 N          15.3322   73.8731   -7.1016 N.ar    1  UNL1       -0.2743
     19 C          16.1882   72.7645   -7.1364 C.ar    1  UNL1        0.3323
     20 C          17.6342   74.1672   -8.4959 C.ar    1  UNL1        0.0869
     21 C          16.8088   75.2149   -8.4537 C.ar    1  UNL1        0.0795
     22 C          15.5400   75.1031   -7.7046 C.ar    1  UNL1        0.2626
     23 H          14.4942   73.7668   -6.5958 H       1  UNL1        0.1734
     24 O          21.5554   72.0411   -3.9190 O.3     1  UNL1       -0.2703
     25 P          21.8037   70.7383   -2.9945 P.3     1  UNL1        0.2208
     26 O          23.3992   70.4950   -3.1190 O.co2   1  UNL1       -0.4371
     27 O          20.9659   69.5497   -3.3676 O.2     1  UNL1       -0.5170
     28 O          21.5884   71.2614   -1.4837 O.3     1  UNL1       -0.2858
     29 O          23.2318   72.7440   -0.6408 O.3     1  UNL1       -0.3226
     30 O          21.1596   71.7468    2.7913 O.3     1  UNL1       -0.3794
     31 O          21.8122   69.7027    0.8089 O.3     1  UNL1       -0.3775
     32 O          20.7558   74.3420    1.5450 O.3     1  UNL1       -0.3792
     33 C          21.3239   72.0052    1.3970 C.3     1  UNL1        0.1718
     34 C          22.3396   71.0242    0.8109 C.3     1  UNL1        0.1968
     35 C          21.8206   73.4440    1.2379 C.3     1  UNL1        0.1723
     36 C          22.7134   71.4134   -0.6200 C.3     1  UNL1        0.2706
     37 C          22.2924   73.7161   -0.1875 C.3     1  UNL1        0.1830
     38 H          20.8445   70.8379    2.9170 H       1  UNL1        0.2105
     39 H          21.5726   69.4492    1.7138 H       1  UNL1        0.2106
     40 H          20.4462   74.1791    2.4497 H       1  UNL1        0.2106
     41 O          24.2417   74.8723    0.4163 O.co2   1  UNL1       -0.5466
     42 O          22.7070   76.0031   -0.8347 O.co2   1  UNL1       -0.5466
     43 C          23.0694   74.9905   -0.2549 C.2     1  UNL1        0.0799
@<TRIPOS>UNITY_ATOM_ATTR
2 1
charge -1
26 1
charge -1
41 1
charge -1
@<TRIPOS>BOND
     1     1     4    1
     2     1    24    1
     3     1     2    1
     4     1     3    2
     5    25    28    1
     6    25    24    1
     7    25    26    1
     8    25    27    2
     9     6    11    1
    10     6    12    1
    11    29    36    1
    12    29    37    1
    13     7     9    1
    14     7    13    1
    15     8    10    1
    16     8    14    1
    17     4     5    1
    18    28    36    1
    19    30    33    1
    20    30    38    1
    21    31    34    1
    22    31    39    1
    23    32    35    1
    24    32    40    1
    25    41    43   ar
    26    15    19    2
    27    42    43   ar
    28    16    22    2
    29    17    12    1
    30    17    19   ar
    31    17    20   ar
    32    18    19   ar
    33    18    22   ar
    34    18    23    1
    35     9    10    1
    36     9    11    1
    37    10    12    1
    38    11     5    1
    39    33    34    1
    40    33    35    1
    41    34    36    1
    42    35    37    1
    43    37    43    1
    44    20    21   ar
    45    21    22   ar
@<TRIPOS>MOLECULE
*****
 43 45 0 0 0
SMALL
GASTEIGER

@<TRIPOS>ATOM
      1 P          18.4353   74.7934   -1.3431 P.3     1  UNL1        0.2189
      2 O          16.8896   75.1289   -1.0011 O.co2   1  UNL1       -0.4371
      3 O          19.0657   75.6884   -2.3696 O.2     1  UNL1       -0.5170
      4 O          18.4206   73.2155   -1.7007 O.3     1  UNL1       -0.3112
      5 C          18.0142   72.8201   -2.9980 C.3     1  UNL1        0.1811
      6 O          17.0223   71.0238   -4.2500 O.3     1  UNL1       -0.3308
      7 O          18.1324   69.1946   -2.1492 O.3     1  UNL1       -0.3794
      8 O          19.9161   68.9080   -4.1918 O.3     1  UNL1       -0.3779
      9 C          18.6944   70.3870   -2.6978 C.3     1  UNL1        0.1713
     10 C          19.2102   70.1276   -4.0974 C.3     1  UNL1        0.1895
     11 C          17.5579   71.3674   -2.9537 C.3     1  UNL1        0.1764
     12 C          17.9272   70.1252   -4.9109 C.3     1  UNL1        0.2383
     13 H          18.8396   68.5528   -1.9772 H       1  UNL1        0.2105
     14 H          20.7244   68.9601   -3.6571 H       1  UNL1        0.2106
     15 O          16.0963   69.7220   -7.0231 O.2     1  UNL1       -0.2464
     16 O          18.8171   71.8986  -10.0403 O.2     1  UNL1       -0.2670
     17 N          18.1320   70.5761   -6.2584 N.ar    1  UNL1       -0.2551
     18 N          17.4536   70.8056   -8.5241 N.ar    1  UNL1       -0.2743
     19 C          17.1498   70.3220   -7.2447 C.ar    1  UNL1        0.3323
     20 C          19.2934   71.2626   -6.5911 C.ar    1  UNL1        0.0869
     21 C          19.5689   71.7175   -7.8150 C.ar    1  UNL1        0.0795
     22 C          18.5952   71.4930   -8.9035 C.ar    1  UNL1        0.2626
     23 H          16.7857   70.6389   -9.2280 H       1  UNL1        0.1734
     24 O          19.1446   74.8303    0.1089 O.3     1  UNL1       -0.2703
     25 P          20.7060   74.8238    0.5280 P.3     1  UNL1        0.2208
     26 O          20.7585   73.7546    1.7423 O.co2   1  UNL1       -0.4371
     27 O          21.2570   76.1774    0.8717 O.2     1  UNL1       -0.5170
     28 O          21.4552   74.0870   -0.6960 O.3     1  UNL1       -0.2858
     29 O          22.9607   72.4042    0.0187 O.3     1  UNL1       -0.3226
     30 O          23.7654   72.5881   -4.0294 O.3     1  UNL1       -0.3794
     31 O          23.3593   75.0360   -2.4875 O.3     1  UNL1       -0.3775
     32 O          22.2068   70.3843   -2.9501 O.3     1  UNL1       -0.3792
     33 C          22.9560   72.6723   -2.8565 C.3     1  UNL1        0.1718
     34 C          23.5209   73.7410   -1.9204 C.3     1  UNL1        0.1968
     35 C          22.9711   71.3035   -2.1722 C.3     1  UNL1        0.1723
     36 C          22.8221   73.7021   -0.5607 C.3     1  UNL1        0.2706
     37 C          22.3703   71.3744   -0.7713 C.3     1  UNL1        0.1830
     38 H          23.7709   73.4467   -4.4810 H       1  UNL1        0.2105
     39 H          23.8001   75.0678   -3.3507 H       1  UNL1        0.2106
     40 H          22.5787   70.3300   -3.8443 H       1  UNL1        0.2106
     41 O          21.5606   69.6290    0.5702 O.co2   1  UNL1       -0.5466
     42 O          23.7947   69.6401    0.1144 O.co2   1  UNL1       -0.5466
     43 C          22.6835   70.1359    0.0035 C.2     1  UNL1        0.0799
@<TRIPOS>UNITY_ATOM_ATTR
2 1
charge -1
26 1
charge -1
41 1
charge -1
@<TRIPOS>BOND
     1     1     4    1
     2     1    24    1
     3     1     2    1
     4     1     3    2
     5    25    28    1
     6    25    24    1
     7    25    26    1
     8    25    27    2
     9     6    11    1
    10     6    12    1
    11    29    36    1
    12    29    37    1
    13     7     9    1
    14     7    13    1
    15     8    10    1
    16     8    14    1
    17     4     5    1
    18    28    36    1
    19    30    33    1
    20    30    38    1
    21    31    34    1
    22    31    39    1
    23    32    35    1
    24    32    40    1
    25    41    43   ar
    26    15    19    2
    27    42    43   ar
    28    16    22    2
    29    17    12    1
    30    17    19   ar
    31    17    20   ar
    32    18    19   ar
    33    18    22   ar
    34    18    23    1
    35     9    10    1
    36     9    11    1
    37    10    12    1
    38    11     5    1
    39    33    34    1
    40    33    35    1
    41    34    36    1
    42    35    37    1
    43    37    43    1
    44    20    21   ar
    45    21    22   ar
