@<TRIPOS>MOLECULE
UD2
 46 48 0 0 0
SMALL
GASTEIGER

@<TRIPOS>ATOM
      1 P          20.8740   71.3377   -2.6782 P.3     1  UNL1        0.2189
      2 O          22.0031   70.2579   -3.0662 O.3     1  UNL1       -0.4371
      3 O          21.0050   72.5248   -3.5515 O.2     1  UNL1       -0.5170
      4 O          19.4156   70.6839   -2.8765 O.3     1  UNL1       -0.3112
      5 C          18.2204   71.2825   -2.3720 C.3     1  UNL1        0.1811
      6 C          16.8272   70.6048   -5.6179 C.3     1  UNL1        0.2383
      7 C          16.9836   69.2093   -4.9618 C.3     1  UNL1        0.1895
      8 O          15.9765   68.3100   -5.4296 O.3     1  UNL1       -0.3779
      9 C          16.7827   69.5313   -3.4607 C.3     1  UNL1        0.1713
     10 C          17.0741   71.0405   -3.3570 C.3     1  UNL1        0.1764
     11 O          17.4511   71.4945   -4.6667 O.3     1  UNL1       -0.3308
     12 O          15.4382   69.2528   -3.0664 O.3     1  UNL1       -0.3794
     13 H          16.0327   67.4234   -5.0482 H       1  UNL1        0.2106
     14 H          15.1818   68.3262   -3.1673 H       1  UNL1        0.2105
     15 N          17.5263   70.6514   -6.9040 N.ar    1  UNL1       -0.2551
     16 C          16.8318   70.5013   -8.0459 C.ar    1  UNL1        0.3323
     17 N          17.4483   70.5396   -9.2419 N.ar    1  UNL1       -0.2743
     18 C          18.7812   70.7323   -9.3126 C.ar    1  UNL1        0.2626
     19 C          19.5246   70.8928   -8.1185 C.ar    1  UNL1        0.0795
     20 C          18.8798   70.8542   -6.9335 C.ar    1  UNL1        0.0869
     21 O          15.6294   70.3271   -7.9973 O.2     1  UNL1       -0.2464
     22 O          19.3404   70.7675  -10.3945 O.2     1  UNL1       -0.2670
     23 H          16.9327   70.4284  -10.0555 H       1  UNL1        0.1734
     24 O          21.0589   71.7791   -1.1406 O.3     1  UNL1       -0.2703
     25 P          22.1053   71.3838    0.0178 P.3     1  UNL1        0.2208
     26 O          21.5544   70.1027    0.8235 O.3     1  UNL1       -0.4371
     27 O          23.4143   71.0582   -0.5896 O.2     1  UNL1       -0.5170
     28 O          22.2768   72.6229    1.0316 O.3     1  UNL1       -0.2865
     29 C          22.3902   72.4611    2.4466 C.3     1  UNL1        0.2611
     30 C          22.1132   73.7983    3.1379 C.3     1  UNL1        0.1582
     31 C          23.1694   74.8178    2.7003 C.3     1  UNL1        0.1625
     32 C          24.5603   74.2701    3.0317 C.3     1  UNL1        0.1686
     33 C          24.7429   72.9143    2.3443 C.3     1  UNL1        0.1760
     34 O          22.9623   76.0485    3.3972 O.3     1  UNL1       -0.3801
     35 O          24.6861   74.1099    4.4459 O.3     1  UNL1       -0.3794
     36 O          23.7111   72.0227    2.7712 O.3     1  UNL1       -0.3263
     37 H          23.5965   76.7415    3.1678 H       1  UNL1        0.2105
     38 H          25.5446   73.7648    4.7285 H       1  UNL1        0.2105
     39 C          19.8429   74.4784    3.7042 C.2     1  UNL1        0.2231
     40 C          18.4743   74.9726    3.3151 C.3     1  UNL1        0.0946
     41 N          20.7822   74.2787    2.7586 N.am    1  UNL1       -0.2994
     42 O          20.1005   74.2598    4.8695 O.2     1  UNL1       -0.2751
     43 H          20.5764   74.4525    1.8267 H       1  UNL1        0.1496
     44 C          26.1074   72.3325    2.7188 C.3     1  UNL1        0.1693
     45 O          26.9832   73.3890    3.1179 O.3     1  UNL1       -0.3794
     46 H          27.8685   73.0927    3.3698 H       1  UNL1        0.2105
@<TRIPOS>BOND
     1    29    30    1
     2    30    41    1
     3    30    31    1
     4    31    34    1
     5    31    32    1
     6    32    35    1
     7    32    33    1
     8    33    36    1
     9    33    44    1
    10    39    40    1
    11    39    42    2
    12    39    41   am
    13    41    43    1
    14    29    28    1
    15    34    37    1
    16    35    38    1
    17    29    36    1
    18    44    45    1
    19    45    46    1
    20    15     6    1
    21    15    16   ar
    22    16    21    2
    23    16    17   ar
    24    17    23    1
    25    17    18   ar
    26    18    19   ar
    27    19    20   ar
    28    15    20   ar
    29    18    22    2
    30     6     7    1
    31     6    11    1
    32     7     9    1
    33     7     8    1
    34     8    13    1
    35     9    10    1
    36     9    12    1
    37    10     5    1
    38    10    11    1
    39    12    14    1
    40     5     4    1
    41     4     1    1
    42     1     2    1
    43     1    24    1
    44     1     3    2
    45    24    25    1
    46    28    25    1
    47    25    26    1
    48    25    27    2
@<TRIPOS>MOLECULE
UD2
 46 48 0 0 0
SMALL
GASTEIGER

@<TRIPOS>ATOM
      1 P          20.7542   71.0822   -3.0975 P.3     1  UNL1        0.2189
      2 O          20.9733   70.4621   -1.6282 O.3     1  UNL1       -0.4371
      3 O          20.8071   69.9988   -4.1037 O.2     1  UNL1       -0.5170
      4 O          19.3179   71.8076   -3.1649 O.3     1  UNL1       -0.3112
      5 C          18.1674   71.3195   -2.4723 C.3     1  UNL1        0.1811
      6 C          16.8087   70.6365   -5.7318 C.3     1  UNL1        0.2383
      7 C          16.9319   69.2446   -5.0614 C.3     1  UNL1        0.1895
      8 O          15.9162   68.3584   -5.5356 O.3     1  UNL1       -0.3779
      9 C          16.7154   69.5833   -3.5662 C.3     1  UNL1        0.1713
     10 C          17.0311   71.0883   -3.4715 C.3     1  UNL1        0.1764
     11 O          17.4343   71.5239   -4.7796 O.3     1  UNL1       -0.3308
     12 O          15.3609   69.3313   -3.1886 O.3     1  UNL1       -0.3794
     13 H          15.9518   67.4744   -5.1458 H       1  UNL1        0.2106
     14 H          15.0901   68.4084   -3.2851 H       1  UNL1        0.2105
     15 N          17.5266   70.6597   -7.0081 N.ar    1  UNL1       -0.2551
     16 C          16.8467   70.5041   -8.1581 C.ar    1  UNL1        0.3323
     17 N          17.4807   70.5210   -9.3455 N.ar    1  UNL1       -0.2743
     18 C          18.8166   70.6973   -9.3992 C.ar    1  UNL1        0.2626
     19 C          19.5447   70.8633   -8.1965 C.ar    1  UNL1        0.0795
     20 C          18.8827   70.8464   -7.0205 C.ar    1  UNL1        0.0869
     21 O          15.6418   70.3445   -8.1248 O.2     1  UNL1       -0.2464
     22 O          19.3915   70.7131  -10.4733 O.2     1  UNL1       -0.2670
     23 H          16.9754   70.4061  -10.1650 H       1  UNL1        0.1734
     24 O          21.9128   72.1576   -3.4047 O.3     1  UNL1       -0.2703
     25 P          23.5081   72.1750   -3.1868 P.3     1  UNL1        0.2208
     26 O          24.0583   70.6624   -3.1316 O.3     1  UNL1       -0.4371
     27 O          24.1518   72.8927   -4.3088 O.2     1  UNL1       -0.5170
     28 O          23.8525   72.9225   -1.8028 O.3     1  UNL1       -0.2865
     29 C          22.9685   73.8578   -1.1823 C.3     1  UNL1        0.2611
     30 C          23.7827   74.8780   -0.3830 C.3     1  UNL1        0.1582
     31 C          24.5457   74.1512    0.7287 C.3     1  UNL1        0.1625
     32 C          23.5472   73.3904    1.6054 C.3     1  UNL1        0.1686
     33 C          22.7419   72.4272    0.7292 C.3     1  UNL1        0.1760
     34 O          25.2511   75.1053    1.5259 O.3     1  UNL1       -0.3801
     35 O          22.6615   74.3177    2.2355 O.3     1  UNL1       -0.3794
     36 O          22.0819   73.1631   -0.3027 O.3     1  UNL1       -0.3263
     37 H          25.7581   74.7138    2.2503 H       1  UNL1        0.2105
     38 H          21.9997   73.9041    2.8072 H       1  UNL1        0.2105
     39 C          24.9367   76.8771   -1.1637 C.2     1  UNL1        0.2231
     40 C          25.9150   77.5678   -2.0772 C.3     1  UNL1        0.0946
     41 N          24.7343   75.5492   -1.2721 N.am    1  UNL1       -0.2994
     42 O          24.3301   77.5163   -0.3296 O.2     1  UNL1       -0.2751
     43 H          25.2183   75.0380   -1.9395 H       1  UNL1        0.1496
     44 C          21.7009   71.7063    1.5877 C.3     1  UNL1        0.1693
     45 O          21.6107   70.3394    1.1806 O.3     1  UNL1       -0.3794
     46 H          20.9680   69.8203    1.6832 H       1  UNL1        0.2105
@<TRIPOS>BOND
     1    29    30    1
     2    30    41    1
     3    30    31    1
     4    31    34    1
     5    31    32    1
     6    32    35    1
     7    32    33    1
     8    33    36    1
     9    33    44    1
    10    39    40    1
    11    39    42    2
    12    39    41   am
    13    41    43    1
    14    29    28    1
    15    34    37    1
    16    35    38    1
    17    29    36    1
    18    44    45    1
    19    45    46    1
    20    15     6    1
    21    15    16   ar
    22    16    21    2
    23    16    17   ar
    24    17    23    1
    25    17    18   ar
    26    18    19   ar
    27    19    20   ar
    28    15    20   ar
    29    18    22    2
    30     6     7    1
    31     6    11    1
    32     7     9    1
    33     7     8    1
    34     8    13    1
    35     9    10    1
    36     9    12    1
    37    10     5    1
    38    10    11    1
    39    12    14    1
    40     5     4    1
    41     4     1    1
    42     1     2    1
    43     1    24    1
    44     1     3    2
    45    24    25    1
    46    28    25    1
    47    25    26    1
    48    25    27    2
@<TRIPOS>MOLECULE
UD2
 46 48 0 0 0
SMALL
GASTEIGER

@<TRIPOS>ATOM
      1 P          23.4111   72.0210   -3.3035 P.3     1  UNL1        0.2189
      2 O          24.1821   72.9066   -4.4048 O.3     1  UNL1       -0.4371
      3 O          24.2048   70.8100   -2.9997 O.2     1  UNL1       -0.5170
      4 O          23.2167   72.8866   -1.9594 O.3     1  UNL1       -0.3112
      5 C          21.9360   73.1511   -1.3838 C.3     1  UNL1        0.1811
      6 C          23.2507   72.1523    1.8116 C.3     1  UNL1        0.2383
      7 C          22.5982   73.5336    2.0731 C.3     1  UNL1        0.1895
      8 O          22.0994   73.6172    3.4095 O.3     1  UNL1       -0.3779
      9 C          21.4374   73.5443    1.0485 C.3     1  UNL1        0.1713
     10 C          21.8532   72.4972   -0.0024 C.3     1  UNL1        0.1764
     11 O          23.1443   71.9968    0.3797 O.3     1  UNL1       -0.3308
     12 O          20.2130   73.1631    1.6779 O.3     1  UNL1       -0.3794
     13 H          21.6823   74.4632    3.6217 H       1  UNL1        0.2106
     14 H          19.9340   73.7558    2.3887 H       1  UNL1        0.2105
     15 N          24.6551   72.1582    2.2273 N.ar    1  UNL1       -0.2551
     16 C          25.3476   71.0055    2.2521 C.ar    1  UNL1        0.3323
     17 N          26.6393   70.9814    2.6301 N.ar    1  UNL1       -0.2743
     18 C          27.2626   72.1217    2.9903 C.ar    1  UNL1        0.2626
     19 C          26.5460   73.3425    2.9679 C.ar    1  UNL1        0.0795
     20 C          25.2531   73.3379    2.5806 C.ar    1  UNL1        0.0869
     21 O          24.7985   69.9697    1.9297 O.2     1  UNL1       -0.2464
     22 O          28.4318   72.1013    3.3322 O.2     1  UNL1       -0.2670
     23 H          27.1236   70.1415    2.6434 H       1  UNL1        0.1734
     24 O          21.9693   71.5886   -3.8758 O.3     1  UNL1       -0.2703
     25 P          21.0246   72.1396   -5.0577 P.3     1  UNL1        0.2208
     26 O          21.0182   73.7499   -5.0324 O.3     1  UNL1       -0.4371
     27 O          21.5407   71.6694   -6.3619 O.2     1  UNL1       -0.5170
     28 O          19.5250   71.5931   -4.8449 O.3     1  UNL1       -0.2865
     29 C          19.1472   70.2384   -5.0963 C.3     1  UNL1        0.2611
     30 C          18.0816   70.2002   -6.1944 C.3     1  UNL1        0.1582
     31 C          16.8355   70.9486   -5.7110 C.3     1  UNL1        0.1625
     32 C          16.3469   70.3147   -4.4057 C.3     1  UNL1        0.1686
     33 C          17.4796   70.3485   -3.3763 C.3     1  UNL1        0.1760
     34 O          15.8087   70.8552   -6.7010 O.3     1  UNL1       -0.3801
     35 O          15.9609   68.9605   -4.6476 O.3     1  UNL1       -0.3794
     36 O          18.6181   69.6621   -3.9004 O.3     1  UNL1       -0.3263
     37 H          14.9890   71.3086   -6.4608 H       1  UNL1        0.2105
     38 H          15.6406   68.4958   -3.8618 H       1  UNL1        0.2105
     39 C          18.5916   70.1827   -8.5771 C.2     1  UNL1        0.2231
     40 C          19.1256   70.8444   -9.8204 C.3     1  UNL1        0.0946
     41 N          18.6014   70.8445   -7.4033 N.am    1  UNL1       -0.2994
     42 O          18.1522   69.0530   -8.6320 O.2     1  UNL1       -0.2751
     43 H          18.9535   71.7473   -7.3587 H       1  UNL1        0.1496
     44 C          17.0187   69.6632   -2.0885 C.3     1  UNL1        0.1693
     45 O          17.3737   68.2795   -2.1310 O.3     1  UNL1       -0.3794
     46 H          17.1115   67.7813   -1.3449 H       1  UNL1        0.2105
@<TRIPOS>BOND
     1    29    30    1
     2    30    41    1
     3    30    31    1
     4    31    34    1
     5    31    32    1
     6    32    35    1
     7    32    33    1
     8    33    36    1
     9    33    44    1
    10    39    40    1
    11    39    42    2
    12    39    41   am
    13    41    43    1
    14    29    28    1
    15    34    37    1
    16    35    38    1
    17    29    36    1
    18    44    45    1
    19    45    46    1
    20    15     6    1
    21    15    16   ar
    22    16    21    2
    23    16    17   ar
    24    17    23    1
    25    17    18   ar
    26    18    19   ar
    27    19    20   ar
    28    15    20   ar
    29    18    22    2
    30     6     7    1
    31     6    11    1
    32     7     9    1
    33     7     8    1
    34     8    13    1
    35     9    10    1
    36     9    12    1
    37    10     5    1
    38    10    11    1
    39    12    14    1
    40     5     4    1
    41     4     1    1
    42     1     2    1
    43     1    24    1
    44     1     3    2
    45    24    25    1
    46    28    25    1
    47    25    26    1
    48    25    27    2
@<TRIPOS>MOLECULE
UD2
 46 48 0 0 0
SMALL
GASTEIGER

@<TRIPOS>ATOM
      1 P          21.2812   71.5110   -2.7737 P.3     1  UNL1        0.2189
      2 O          22.4657   71.4573   -3.8625 O.3     1  UNL1       -0.4371
      3 O          20.8053   72.9045   -2.6299 O.2     1  UNL1       -0.5170
      4 O          20.0635   70.5754   -3.2590 O.3     1  UNL1       -0.3112
      5 C          18.8848   70.3671   -2.4788 C.3     1  UNL1        0.1811
      6 C          17.1447   70.4457   -5.6256 C.3     1  UNL1        0.2383
      7 C          16.9862   68.9861   -5.1290 C.3     1  UNL1        0.1895
      8 O          15.7538   68.4237   -5.5836 O.3     1  UNL1       -0.3779
      9 C          16.9776   69.1649   -3.5910 C.3     1  UNL1        0.1713
     10 C          17.6495   70.5332   -3.3673 C.3     1  UNL1        0.1764
     11 O          18.0383   71.0347   -4.6560 O.3     1  UNL1       -0.3308
     12 O          15.6370   69.1789   -3.0978 O.3     1  UNL1       -0.3794
     13 H          15.6090   67.5111   -5.2991 H       1  UNL1        0.2106
     14 H          15.1472   68.3624   -3.2645 H       1  UNL1        0.2105
     15 N          17.7423   70.4736   -6.9624 N.ar    1  UNL1       -0.2551
     16 C          16.9482   70.4631   -8.0478 C.ar    1  UNL1        0.3323
     17 N          17.4701   70.4880   -9.2884 N.ar    1  UNL1       -0.2743
     18 C          18.8069   70.5260   -9.4617 C.ar    1  UNL1        0.2626
     19 C          19.6547   70.5386   -8.3280 C.ar    1  UNL1        0.0795
     20 C          19.1041   70.5173   -7.0960 C.ar    1  UNL1        0.0869
     21 O          15.7410   70.4291   -7.9066 O.2     1  UNL1       -0.2464
     22 O          19.2806   70.5490  -10.5840 O.2     1  UNL1       -0.2670
     23 H          16.8832   70.4787  -10.0602 H       1  UNL1        0.1734
     24 O          21.8311   70.9823   -1.3554 O.3     1  UNL1       -0.2703
     25 P          21.5449   71.3885    0.1763 P.3     1  UNL1        0.2208
     26 O          20.1141   72.1207    0.2784 O.3     1  UNL1       -0.4371
     27 O          21.5364   70.1709    1.0164 O.2     1  UNL1       -0.5170
     28 O          22.6977   72.3880    0.6907 O.3     1  UNL1       -0.2865
     29 C          22.4574   73.7636    0.9928 C.3     1  UNL1        0.2611
     30 C          23.7786   74.5351    0.9483 C.3     1  UNL1        0.1582
     31 C          24.7200   73.9807    2.0220 C.3     1  UNL1        0.1625
     32 C          24.0350   74.0811    3.3876 C.3     1  UNL1        0.1686
     33 C          22.7035   73.3269    3.3380 C.3     1  UNL1        0.1760
     34 O          25.9288   74.7435    2.0368 O.3     1  UNL1       -0.3801
     35 O          23.7953   75.4541    3.7019 O.3     1  UNL1       -0.3794
     36 O          21.8877   73.8716    2.2989 O.3     1  UNL1       -0.3263
     37 H          26.5729   74.4464    2.6941 H       1  UNL1        0.2105
     38 H          23.3616   75.5929    4.5555 H       1  UNL1        0.2105
     39 C          24.3572   75.3898   -1.2591 C.2     1  UNL1        0.2231
     40 C          24.9896   75.2272   -2.6164 C.3     1  UNL1        0.0946
     41 N          24.3939   74.3761   -0.3719 N.am    1  UNL1       -0.2994
     42 O          23.8141   76.4339   -0.9639 O.2     1  UNL1       -0.2751
     43 H          24.8271   73.5409   -0.6078 H       1  UNL1        0.1496
     44 C          21.9848   73.4727    4.6806 C.3     1  UNL1        0.1693
     45 O          22.4842   72.4968    5.5975 O.3     1  UNL1       -0.3794
     46 H          22.0723   72.5307    6.4717 H       1  UNL1        0.2105
@<TRIPOS>BOND
     1    29    30    1
     2    30    41    1
     3    30    31    1
     4    31    34    1
     5    31    32    1
     6    32    35    1
     7    32    33    1
     8    33    36    1
     9    33    44    1
    10    39    40    1
    11    39    42    2
    12    39    41   am
    13    41    43    1
    14    29    28    1
    15    34    37    1
    16    35    38    1
    17    29    36    1
    18    44    45    1
    19    45    46    1
    20    15     6    1
    21    15    16   ar
    22    16    21    2
    23    16    17   ar
    24    17    23    1
    25    17    18   ar
    26    18    19   ar
    27    19    20   ar
    28    15    20   ar
    29    18    22    2
    30     6     7    1
    31     6    11    1
    32     7     9    1
    33     7     8    1
    34     8    13    1
    35     9    10    1
    36     9    12    1
    37    10     5    1
    38    10    11    1
    39    12    14    1
    40     5     4    1
    41     4     1    1
    42     1     2    1
    43     1    24    1
    44     1     3    2
    45    24    25    1
    46    28    25    1
    47    25    26    1
    48    25    27    2
@<TRIPOS>MOLECULE
UD2
 46 48 0 0 0
SMALL
GASTEIGER

@<TRIPOS>ATOM
      1 P          22.8905   72.0838   -3.4906 P.3     1  UNL1        0.2189
      2 O          23.4972   72.6511   -4.8695 O.3     1  UNL1       -0.4371
      3 O          23.5212   70.7842   -3.1711 O.2     1  UNL1       -0.5170
      4 O          23.1871   73.1306   -2.3032 O.3     1  UNL1       -0.3112
      5 C          22.4721   73.1257   -1.0662 C.3     1  UNL1        0.1811
      6 C          24.4653   71.8902    1.6610 C.3     1  UNL1        0.2383
      7 C          23.0640   72.1278    2.2789 C.3     1  UNL1        0.1895
      8 O          22.8113   71.2049    3.3401 O.3     1  UNL1       -0.3779
      9 C          22.1277   71.8560    1.0759 C.3     1  UNL1        0.1713
     10 C          23.0364   72.0323   -0.1557 C.3     1  UNL1        0.1764
     11 O          24.3353   72.4164    0.3224 O.3     1  UNL1       -0.3308
     12 O          21.6154   70.5238    1.1335 O.3     1  UNL1       -0.3794
     13 H          21.9469   71.3140    3.7591 H       1  UNL1        0.2106
     14 H          21.0840   70.3395    1.9198 H       1  UNL1        0.2105
     15 N          25.4894   72.6246    2.4073 N.ar    1  UNL1       -0.2551
     16 C          26.6434   72.0148    2.7317 C.ar    1  UNL1        0.3323
     17 N          27.6019   72.6655    3.4172 N.ar    1  UNL1       -0.2743
     18 C          27.4178   73.9485    3.7897 C.ar    1  UNL1        0.2626
     19 C          26.2083   74.6030    3.4540 C.ar    1  UNL1        0.0795
     20 C          25.2663   73.9278    2.7624 C.ar    1  UNL1        0.0869
     21 O          26.8231   70.8583    2.4022 O.2     1  UNL1       -0.2464
     22 O          28.2847   74.5387    4.4099 O.2     1  UNL1       -0.2670
     23 H          28.4276   72.2106    3.6440 H       1  UNL1        0.1734
     24 O          21.2999   71.8853   -3.6451 O.3     1  UNL1       -0.2703
     25 P          20.2616   70.7559   -3.1561 P.3     1  UNL1        0.2208
     26 O          20.4444   69.4333   -4.0567 O.3     1  UNL1       -0.4371
     27 O          20.5229   70.4261   -1.7378 O.2     1  UNL1       -0.5170
     28 O          18.7567   71.3073   -3.3109 O.3     1  UNL1       -0.2865
     29 C          17.7902   70.7012   -4.1710 C.3     1  UNL1        0.2611
     30 C          17.7855   71.4207   -5.5219 C.3     1  UNL1        0.1582
     31 C          17.3709   72.8803   -5.3119 C.3     1  UNL1        0.1625
     32 C          16.0006   72.9174   -4.6297 C.3     1  UNL1        0.1686
     33 C          16.0741   72.1401   -3.3128 C.3     1  UNL1        0.1760
     34 O          17.2926   73.5409   -6.5770 O.3     1  UNL1       -0.3801
     35 O          15.0251   72.3184   -5.4846 O.3     1  UNL1       -0.3794
     36 O          16.4949   70.7999   -3.5754 O.3     1  UNL1       -0.3263
     37 H          17.0352   74.4713   -6.5192 H       1  UNL1        0.2105
     38 H          14.1311   72.3067   -5.1148 H       1  UNL1        0.2105
     39 C          19.3555   70.6359   -7.2121 C.2     1  UNL1        0.2231
     40 C          20.7353   70.5859   -7.8141 C.3     1  UNL1        0.0946
     41 N          19.1280   71.3724   -6.1067 N.am    1  UNL1       -0.2994
     42 O          18.4479   70.0130   -7.7224 O.2     1  UNL1       -0.2751
     43 H          19.8535   71.8698   -5.6978 H       1  UNL1        0.1496
     44 C          14.6936   72.1217   -2.6539 C.3     1  UNL1        0.1693
     45 O          14.6265   73.1447   -1.6582 O.3     1  UNL1       -0.3794
     46 H          13.7773   73.1915   -1.1981 H       1  UNL1        0.2105
@<TRIPOS>BOND
     1    29    30    1
     2    30    41    1
     3    30    31    1
     4    31    34    1
     5    31    32    1
     6    32    35    1
     7    32    33    1
     8    33    36    1
     9    33    44    1
    10    39    40    1
    11    39    42    2
    12    39    41   am
    13    41    43    1
    14    29    28    1
    15    34    37    1
    16    35    38    1
    17    29    36    1
    18    44    45    1
    19    45    46    1
    20    15     6    1
    21    15    16   ar
    22    16    21    2
    23    16    17   ar
    24    17    23    1
    25    17    18   ar
    26    18    19   ar
    27    19    20   ar
    28    15    20   ar
    29    18    22    2
    30     6     7    1
    31     6    11    1
    32     7     9    1
    33     7     8    1
    34     8    13    1
    35     9    10    1
    36     9    12    1
    37    10     5    1
    38    10    11    1
    39    12    14    1
    40     5     4    1
    41     4     1    1
    42     1     2    1
    43     1    24    1
    44     1     3    2
    45    24    25    1
    46    28    25    1
    47    25    26    1
    48    25    27    2
@<TRIPOS>MOLECULE
UD2
 46 48 0 0 0
SMALL
GASTEIGER

@<TRIPOS>ATOM
      1 P          23.1591   72.3912   -3.1818 P.3     1  UNL1        0.2189
      2 O          24.1857   72.6529   -4.3938 O.3     1  UNL1       -0.4371
      3 O          23.1274   70.9465   -2.8646 O.2     1  UNL1       -0.5170
      4 O          23.6397   73.2153   -1.8842 O.3     1  UNL1       -0.3112
      5 C          22.8294   73.3697   -0.7176 C.3     1  UNL1        0.1811
      6 C          24.6042   72.0198    2.1045 C.3     1  UNL1        0.2383
      7 C          23.3021   72.6058    2.7071 C.3     1  UNL1        0.1895
      8 O          22.8956   71.8661    3.8600 O.3     1  UNL1       -0.3779
      9 C          22.2939   72.4187    1.5470 C.3     1  UNL1        0.1713
     10 C          23.1816   72.2778    0.2957 C.3     1  UNL1        0.1764
     11 O          24.5459   72.4265    0.7201 O.3     1  UNL1       -0.3308
     12 O          21.5181   71.2358    1.7462 O.3     1  UNL1       -0.3794
     13 H          22.0857   72.1948    4.2732 H       1  UNL1        0.2106
     14 H          20.9841   71.2458    2.5519 H       1  UNL1        0.2105
     15 N          25.7806   72.5934    2.7620 N.ar    1  UNL1       -0.2551
     16 C          26.9150   71.8755    2.8431 C.ar    1  UNL1        0.3323
     17 N          28.0112   72.3775    3.4419 N.ar    1  UNL1       -0.2743
     18 C          27.9876   73.6176    3.9713 C.ar    1  UNL1        0.2626
     19 C          26.8005   74.3848    3.8921 C.ar    1  UNL1        0.0795
     20 C          25.7178   73.8581    3.2824 C.ar    1  UNL1        0.0869
     21 O          26.9507   70.7560    2.3700 O.2     1  UNL1       -0.2464
     22 O          28.9793   74.0733    4.5131 O.2     1  UNL1       -0.2670
     23 H          28.8205   71.8460    3.4928 H       1  UNL1        0.1734
     24 O          21.6858   72.8792   -3.6112 O.3     1  UNL1       -0.2703
     25 P          20.1981   72.5126   -3.1159 P.3     1  UNL1        0.2208
     26 O          20.2475   71.1825   -2.2092 O.3     1  UNL1       -0.4371
     27 O          19.6534   73.6328   -2.3179 O.2     1  UNL1       -0.5170
     28 O          19.2546   72.2558   -4.3952 O.3     1  UNL1       -0.2865
     29 C          19.6215   71.3916   -5.4721 C.3     1  UNL1        0.2611
     30 C          19.2836   72.0639   -6.8050 C.3     1  UNL1        0.1582
     31 C          17.7706   72.2892   -6.8842 C.3     1  UNL1        0.1625
     32 C          17.0557   70.9459   -6.7140 C.3     1  UNL1        0.1686
     33 C          17.4796   70.3166   -5.3842 C.3     1  UNL1        0.1760
     34 O          17.4375   72.8496   -8.1563 O.3     1  UNL1       -0.3801
     35 O          17.4116   70.0757   -7.7898 O.3     1  UNL1       -0.3794
     36 O          18.9001   70.1628   -5.3632 O.3     1  UNL1       -0.3263
     37 H          16.4930   73.0196   -8.2756 H       1  UNL1        0.2105
     38 H          16.9945   69.2039   -7.7458 H       1  UNL1        0.2105
     39 C          21.2930   73.3920   -7.1739 C.2     1  UNL1        0.2231
     40 C          22.0052   74.7161   -7.2643 C.3     1  UNL1        0.0946
     41 N          19.9757   73.3523   -6.8925 N.am    1  UNL1       -0.2994
     42 O          21.9053   72.3602   -7.3545 O.2     1  UNL1       -0.2751
     43 H          19.4861   74.1770   -6.7470 H       1  UNL1        0.1496
     44 C          16.8156   68.9465   -5.2341 C.3     1  UNL1        0.1693
     45 O          15.7246   69.0431   -4.3161 O.3     1  UNL1       -0.3794
     46 H          15.2562   68.2095   -4.1720 H       1  UNL1        0.2105
@<TRIPOS>BOND
     1    29    30    1
     2    30    41    1
     3    30    31    1
     4    31    34    1
     5    31    32    1
     6    32    35    1
     7    32    33    1
     8    33    36    1
     9    33    44    1
    10    39    40    1
    11    39    42    2
    12    39    41   am
    13    41    43    1
    14    29    28    1
    15    34    37    1
    16    35    38    1
    17    29    36    1
    18    44    45    1
    19    45    46    1
    20    15     6    1
    21    15    16   ar
    22    16    21    2
    23    16    17   ar
    24    17    23    1
    25    17    18   ar
    26    18    19   ar
    27    19    20   ar
    28    15    20   ar
    29    18    22    2
    30     6     7    1
    31     6    11    1
    32     7     9    1
    33     7     8    1
    34     8    13    1
    35     9    10    1
    36     9    12    1
    37    10     5    1
    38    10    11    1
    39    12    14    1
    40     5     4    1
    41     4     1    1
    42     1     2    1
    43     1    24    1
    44     1     3    2
    45    24    25    1
    46    28    25    1
    47    25    26    1
    48    25    27    2
@<TRIPOS>MOLECULE
UD2
 46 48 0 0 0
SMALL
GASTEIGER

@<TRIPOS>ATOM
      1 P          20.8908   72.2854   -2.4491 P.3     1  UNL1        0.2189
      2 O          21.8661   72.8430   -3.6020 O.3     1  UNL1       -0.4371
      3 O          20.3270   73.4213   -1.6871 O.2     1  UNL1       -0.5170
      4 O          19.6938   71.4425   -3.1204 O.3     1  UNL1       -0.3112
      5 C          18.5588   70.9831   -2.3841 C.3     1  UNL1        0.1811
      6 C          16.9567   70.5701   -5.5778 C.3     1  UNL1        0.2383
      7 C          17.0114   69.1406   -4.9815 C.3     1  UNL1        0.1895
      8 O          15.9030   68.3581   -5.4299 O.3     1  UNL1       -0.3779
      9 C          16.9126   69.4182   -3.4614 C.3     1  UNL1        0.1713
     10 C          17.3497   70.8886   -3.3180 C.3     1  UNL1        0.1764
     11 O          17.7059   71.3587   -4.6278 O.3     1  UNL1       -0.3308
     12 O          15.5678   69.2494   -3.0099 O.3     1  UNL1       -0.3794
     13 H          15.8932   67.4553   -5.0842 H       1  UNL1        0.2106
     14 H          15.2207   68.3554   -3.1311 H       1  UNL1        0.2105
     15 N          17.5959   70.6043   -6.8951 N.ar    1  UNL1       -0.2551
     16 C          16.8471   70.4609   -8.0031 C.ar    1  UNL1        0.3323
     17 N          17.4079   70.4881   -9.2266 N.ar    1  UNL1       -0.2743
     18 C          18.7384   70.6626   -9.3596 C.ar    1  UNL1        0.2626
     19 C          19.5386   70.8158   -8.2018 C.ar    1  UNL1        0.0795
     20 C          18.9492   70.7888   -6.9880 C.ar    1  UNL1        0.0869
     21 O          15.6461   70.3030   -7.8982 O.2     1  UNL1       -0.2464
     22 O          19.2472   70.6878  -10.4664 O.2     1  UNL1       -0.2670
     23 H          16.8535   70.3819  -10.0150 H       1  UNL1        0.1734
     24 O          21.7250   71.3326   -1.4544 O.3     1  UNL1       -0.2703
     25 P          22.0762   71.3903    0.1160 P.3     1  UNL1        0.2208
     26 O          21.4829   70.0833    0.8465 O.3     1  UNL1       -0.4371
     27 O          23.5444   71.4295    0.2924 O.2     1  UNL1       -0.5170
     28 O          21.4219   72.7112    0.7640 O.3     1  UNL1       -0.2865
     29 C          20.4197   72.6647    1.7812 C.3     1  UNL1        0.2611
     30 C          19.8107   74.0571    1.9628 C.3     1  UNL1        0.1582
     31 C          20.9021   75.0255    2.4291 C.3     1  UNL1        0.1625
     32 C          21.5252   74.4914    3.7217 C.3     1  UNL1        0.1686
     33 C          22.0683   73.0819    3.4722 C.3     1  UNL1        0.1760
     34 O          20.3271   76.3115    2.6718 O.3     1  UNL1       -0.3801
     35 O          20.5319   74.4464    4.7477 O.3     1  UNL1       -0.3794
     36 O          21.0097   72.2399    3.0115 O.3     1  UNL1       -0.3263
     37 H          20.9630   76.9762    2.9700 H       1  UNL1        0.2105
     38 H          20.8572   74.1161    5.5968 H       1  UNL1        0.2105
     39 C          17.9544   74.8488    0.5970 C.2     1  UNL1        0.2231
     40 C          17.3855   75.3246   -0.7139 C.3     1  UNL1        0.0946
     41 N          19.2581   74.5196    0.6871 N.am    1  UNL1       -0.2994
     42 O          17.2387   74.7615    1.5730 O.2     1  UNL1       -0.2751
     43 H          19.8303   74.5883   -0.0931 H       1  UNL1        0.1496
     44 C          22.6393   72.5177    4.7746 C.3     1  UNL1        0.1693
     45 O          21.9635   73.1079    5.8869 O.3     1  UNL1       -0.3794
     46 H          22.2748   72.7960    6.7476 H       1  UNL1        0.2105
@<TRIPOS>BOND
     1    29    30    1
     2    30    41    1
     3    30    31    1
     4    31    34    1
     5    31    32    1
     6    32    35    1
     7    32    33    1
     8    33    36    1
     9    33    44    1
    10    39    40    1
    11    39    42    2
    12    39    41   am
    13    41    43    1
    14    29    28    1
    15    34    37    1
    16    35    38    1
    17    29    36    1
    18    44    45    1
    19    45    46    1
    20    15     6    1
    21    15    16   ar
    22    16    21    2
    23    16    17   ar
    24    17    23    1
    25    17    18   ar
    26    18    19   ar
    27    19    20   ar
    28    15    20   ar
    29    18    22    2
    30     6     7    1
    31     6    11    1
    32     7     9    1
    33     7     8    1
    34     8    13    1
    35     9    10    1
    36     9    12    1
    37    10     5    1
    38    10    11    1
    39    12    14    1
    40     5     4    1
    41     4     1    1
    42     1     2    1
    43     1    24    1
    44     1     3    2
    45    24    25    1
    46    28    25    1
    47    25    26    1
    48    25    27    2
@<TRIPOS>MOLECULE
UD2
 46 48 0 0 0
SMALL
GASTEIGER

@<TRIPOS>ATOM
      1 P          16.5279   69.4244   -2.3510 P.3     1  UNL1        0.2189
      2 O          17.7325   68.3570   -2.3206 O.3     1  UNL1       -0.4371
      3 O          15.7555   69.2620   -3.6024 O.2     1  UNL1       -0.5170
      4 O          15.5605   69.1777   -1.0873 O.3     1  UNL1       -0.3112
      5 C          14.6127   70.1458   -0.6334 C.3     1  UNL1        0.1811
      6 C          12.3155   68.1404    1.2740 C.3     1  UNL1        0.2383
      7 C          12.0217   69.5965    1.7161 C.3     1  UNL1        0.1895
      8 O          10.6479   69.7527    2.0769 O.3     1  UNL1       -0.3779
      9 C          12.3505   70.3987    0.4332 C.3     1  UNL1        0.1713
     10 C          13.2692   69.4604   -0.3725 C.3     1  UNL1        0.1764
     11 O          13.4695   68.2767    0.4163 O.3     1  UNL1       -0.3308
     12 O          11.1565   70.6802   -0.2989 O.3     1  UNL1       -0.3794
     13 H          10.4149   70.6468    2.3614 H       1  UNL1        0.2106
     14 H          10.5158   71.2191    0.1844 H       1  UNL1        0.2105
     15 N          12.6301   67.3028    2.4334 N.ar    1  UNL1       -0.2551
     16 C          12.5290   65.9652    2.3363 C.ar    1  UNL1        0.3323
     17 N          12.8116   65.1710    3.3858 N.ar    1  UNL1       -0.2743
     18 C          13.2048   65.7095    4.5580 C.ar    1  UNL1        0.2626
     19 C          13.3165   67.1160    4.6741 C.ar    1  UNL1        0.0795
     20 C          13.0309   67.8878    3.6044 C.ar    1  UNL1        0.0869
     21 O          12.1759   65.4658    1.2854 O.2     1  UNL1       -0.2464
     22 O          13.4613   64.9918    5.5086 O.2     1  UNL1       -0.2670
     23 H          12.7324   64.2085    3.2990 H       1  UNL1        0.1734
     24 O          17.1304   70.9162   -2.2816 O.3     1  UNL1       -0.2703
     25 P          18.6177   71.5152   -2.1325 P.3     1  UNL1        0.2208
     26 O          18.6010   72.7368   -1.0831 O.3     1  UNL1       -0.4371
     27 O          19.5290   70.4577   -1.6432 O.2     1  UNL1       -0.5170
     28 O          19.1289   72.0445   -3.5647 O.3     1  UNL1       -0.2865
     29 C          19.9528   71.2653   -4.4337 C.3     1  UNL1        0.2611
     30 C          20.6639   72.1875   -5.4270 C.3     1  UNL1        0.1582
     31 C          19.6169   72.8970   -6.2912 C.3     1  UNL1        0.1625
     32 C          18.7517   71.8460   -6.9920 C.3     1  UNL1        0.1686
     33 C          18.1142   70.9367   -5.9380 C.3     1  UNL1        0.1760
     34 O          20.2743   73.7046   -7.2705 O.3     1  UNL1       -0.3801
     35 O          19.5657   71.0645   -7.8684 O.3     1  UNL1       -0.3794
     36 O          19.1408   70.3320   -5.1491 O.3     1  UNL1       -0.3263
     37 H          19.6703   74.1846   -7.8536 H       1  UNL1        0.2105
     38 H          19.0819   70.3763   -8.3463 H       1  UNL1        0.2105
     39 C          22.7900   73.2184   -4.8317 C.2     1  UNL1        0.2231
     40 C          23.5988   74.2417   -4.0786 C.3     1  UNL1        0.0946
     41 N          21.4499   73.1831   -4.6940 N.am    1  UNL1       -0.2994
     42 O          23.3449   72.4249   -5.5629 O.2     1  UNL1       -0.2751
     43 H          21.0060   73.8167   -4.1087 H       1  UNL1        0.1496
     44 C          17.2957   69.8468   -6.6328 C.3     1  UNL1        0.1693
     45 O          15.9041   70.1540   -6.5258 O.3     1  UNL1       -0.3794
     46 H          15.3239   69.5040   -6.9452 H       1  UNL1        0.2105
@<TRIPOS>BOND
     1    29    30    1
     2    30    41    1
     3    30    31    1
     4    31    34    1
     5    31    32    1
     6    32    35    1
     7    32    33    1
     8    33    36    1
     9    33    44    1
    10    39    40    1
    11    39    42    2
    12    39    41   am
    13    41    43    1
    14    29    28    1
    15    34    37    1
    16    35    38    1
    17    29    36    1
    18    44    45    1
    19    45    46    1
    20    15     6    1
    21    15    16   ar
    22    16    21    2
    23    16    17   ar
    24    17    23    1
    25    17    18   ar
    26    18    19   ar
    27    19    20   ar
    28    15    20   ar
    29    18    22    2
    30     6     7    1
    31     6    11    1
    32     7     9    1
    33     7     8    1
    34     8    13    1
    35     9    10    1
    36     9    12    1
    37    10     5    1
    38    10    11    1
    39    12    14    1
    40     5     4    1
    41     4     1    1
    42     1     2    1
    43     1    24    1
    44     1     3    2
    45    24    25    1
    46    28    25    1
    47    25    26    1
    48    25    27    2
@<TRIPOS>MOLECULE
UD2
 46 48 0 0 0
SMALL
GASTEIGER

@<TRIPOS>ATOM
      1 P          16.3389   69.7621   -2.3149 P.3     1  UNL1        0.2189
      2 O          15.9345   69.1313   -3.7396 O.3     1  UNL1       -0.4371
      3 O          15.7887   71.1312   -2.2068 O.2     1  UNL1       -0.5170
      4 O          15.7381   68.8474   -1.1333 O.3     1  UNL1       -0.3112
      5 C          14.6352   69.2533   -0.3206 C.3     1  UNL1        0.1811
      6 C          12.7874   66.9358    1.7168 C.3     1  UNL1        0.2383
      7 C          11.7770   68.0674    1.3997 C.3     1  UNL1        0.1895
      8 O          10.4427   67.5592    1.3444 O.3     1  UNL1       -0.3779
      9 C          12.2463   68.5403    0.0020 C.3     1  UNL1        0.1713
     10 C          13.7070   68.0587   -0.0875 C.3     1  UNL1        0.1764
     11 O          14.0269   67.4278    1.1627 O.3     1  UNL1       -0.3308
     12 O          11.4556   67.9337   -1.0214 O.3     1  UNL1       -0.3794
     13 H           9.7739   68.2295    1.1494 H       1  UNL1        0.2106
     14 H          10.5158   68.1557   -0.9769 H       1  UNL1        0.2105
     15 N          12.9090   66.7433    3.1636 N.ar    1  UNL1       -0.2551
     16 C          13.0455   67.8119    3.9689 C.ar    1  UNL1        0.3323
     17 N          13.1596   67.6646    5.3021 N.ar    1  UNL1       -0.2743
     18 C          13.1365   66.4341    5.8534 C.ar    1  UNL1        0.2626
     19 C          12.9923   65.3005    5.0177 C.ar    1  UNL1        0.0795
     20 C          12.8758   65.4779    3.6849 C.ar    1  UNL1        0.0869
     21 O          13.0678   68.9273    3.4856 O.2     1  UNL1       -0.2464
     22 O          13.2392   66.2994    7.0600 O.2     1  UNL1       -0.2670
     23 H          13.2585   68.4456    5.8681 H       1  UNL1        0.1734
     24 O          17.9433   69.8164   -2.1875 O.3     1  UNL1       -0.2703
     25 P          19.0164   71.0123   -2.0811 P.3     1  UNL1        0.2208
     26 O          18.2972   72.3271   -1.4916 O.3     1  UNL1       -0.4371
     27 O          20.1184   70.6079   -1.1809 O.2     1  UNL1       -0.5170
     28 O          19.6081   71.3339   -3.5437 O.3     1  UNL1       -0.2865
     29 C          20.6530   70.5681   -4.1463 C.3     1  UNL1        0.2611
     30 C          21.9559   71.3709   -4.1193 C.3     1  UNL1        0.1582
     31 C          21.7768   72.6466   -4.9481 C.3     1  UNL1        0.1625
     32 C          21.3603   72.2639   -6.3709 C.3     1  UNL1        0.1686
     33 C          20.0799   71.4265   -6.3111 C.3     1  UNL1        0.1760
     34 O          23.0112   73.3663   -4.9891 O.3     1  UNL1       -0.3801
     35 O          22.4015   71.5022   -6.9849 O.3     1  UNL1       -0.3794
     36 O          20.3055   70.2716   -5.5004 O.3     1  UNL1       -0.3263
     37 H          22.9704   74.1876   -5.4979 H       1  UNL1        0.2105
     38 H          22.2048   71.2242   -7.8904 H       1  UNL1        0.2105
     39 C          23.4781   71.3863   -2.2165 C.2     1  UNL1        0.2231
     40 C          23.8146   71.7526   -0.7949 C.3     1  UNL1        0.0946
     41 N          22.2824   71.7274   -2.7362 N.am    1  UNL1       -0.2994
     42 O          24.2837   70.7836   -2.8948 O.2     1  UNL1       -0.2751
     43 H          21.6377   72.2083   -2.1940 H       1  UNL1        0.1496
     44 C          19.6900   70.9897   -7.7245 C.3     1  UNL1        0.1693
     45 O          20.3263   71.8414   -8.6796 O.3     1  UNL1       -0.3794
     46 H          20.1236   71.6223   -9.5993 H       1  UNL1        0.2105
@<TRIPOS>BOND
     1    29    30    1
     2    30    41    1
     3    30    31    1
     4    31    34    1
     5    31    32    1
     6    32    35    1
     7    32    33    1
     8    33    36    1
     9    33    44    1
    10    39    40    1
    11    39    42    2
    12    39    41   am
    13    41    43    1
    14    29    28    1
    15    34    37    1
    16    35    38    1
    17    29    36    1
    18    44    45    1
    19    45    46    1
    20    15     6    1
    21    15    16   ar
    22    16    21    2
    23    16    17   ar
    24    17    23    1
    25    17    18   ar
    26    18    19   ar
    27    19    20   ar
    28    15    20   ar
    29    18    22    2
    30     6     7    1
    31     6    11    1
    32     7     9    1
    33     7     8    1
    34     8    13    1
    35     9    10    1
    36     9    12    1
    37    10     5    1
    38    10    11    1
    39    12    14    1
    40     5     4    1
    41     4     1    1
    42     1     2    1
    43     1    24    1
    44     1     3    2
    45    24    25    1
    46    28    25    1
    47    25    26    1
    48    25    27    2
@<TRIPOS>MOLECULE
UD2
 46 48 0 0 0
SMALL
GASTEIGER

@<TRIPOS>ATOM
      1 P          22.9219   71.6713   -3.2779 P.3     1  UNL1        0.2189
      2 O          23.0543   72.3073   -4.7508 O.3     1  UNL1       -0.4371
      3 O          24.0883   70.8020   -3.0086 O.2     1  UNL1       -0.5170
      4 O          22.8700   72.8536   -2.1856 O.3     1  UNL1       -0.3112
      5 C          22.4435   72.6481   -0.8376 C.3     1  UNL1        0.1811
      6 C          24.1198   72.6561    2.3447 C.3     1  UNL1        0.2383
      7 C          23.8114   71.1622    2.0704 C.3     1  UNL1        0.1895
      8 O          24.8044   70.3200    2.6591 O.3     1  UNL1       -0.3779
      9 C          23.8759   71.0951    0.5249 C.3     1  UNL1        0.1713
     10 C          23.6683   72.5541    0.0757 C.3     1  UNL1        0.1764
     11 O          23.4569   73.3402    1.2593 O.3     1  UNL1       -0.3308
     12 O          25.1530   70.6171    0.0991 O.3     1  UNL1       -0.3794
     13 H          24.6550   69.3757    2.5154 H       1  UNL1        0.2106
     14 H          25.3611   69.7238    0.4042 H       1  UNL1        0.2105
     15 N          23.5612   73.0699    3.6337 N.ar    1  UNL1       -0.2551
     16 C          22.3325   72.6560    3.9913 C.ar    1  UNL1        0.3323
     17 N          21.7942   73.0210    5.1699 N.ar    1  UNL1       -0.2743
     18 C          22.4854   73.8115    6.0160 C.ar    1  UNL1        0.2626
     19 C          23.7802   74.2538    5.6529 C.ar    1  UNL1        0.0795
     20 C          24.2970   73.8689    4.4670 C.ar    1  UNL1        0.0869
     21 O          21.6979   71.9427    3.2384 O.2     1  UNL1       -0.2464
     22 O          21.9994   74.1423    7.0832 O.2     1  UNL1       -0.2670
     23 H          20.9065   72.7146    5.4116 H       1  UNL1        0.1734
     24 O          21.5706   70.7998   -3.1890 O.3     1  UNL1       -0.2703
     25 P          20.0098   71.1688   -3.0454 P.3     1  UNL1        0.2208
     26 O          19.3801   70.3616   -1.8022 O.3     1  UNL1       -0.4371
     27 O          19.8657   72.6226   -2.8128 O.2     1  UNL1       -0.5170
     28 O          19.2357   70.7618   -4.3974 O.3     1  UNL1       -0.2865
     29 C          18.5264   71.7053   -5.2024 C.3     1  UNL1        0.2611
     30 C          17.1116   71.1867   -5.4709 C.3     1  UNL1        0.1582
     31 C          17.1985   69.8758   -6.2585 C.3     1  UNL1        0.1625
     32 C          17.9821   70.1203   -7.5510 C.3     1  UNL1        0.1686
     33 C          19.3638   70.6801   -7.2022 C.3     1  UNL1        0.1760
     34 O          15.8809   69.4224   -6.5773 O.3     1  UNL1       -0.3801
     35 O          17.2779   71.0587   -8.3663 O.3     1  UNL1       -0.3794
     36 O          19.2115   71.8818   -6.4441 O.3     1  UNL1       -0.3263
     37 H          15.8604   68.5944   -7.0764 H       1  UNL1        0.2105
     38 H          17.7184   71.2619   -9.2033 H       1  UNL1        0.2105
     39 C          16.4449   69.7202   -3.6426 C.2     1  UNL1        0.2231
     40 C          15.7426   69.4744   -2.3331 C.3     1  UNL1        0.0946
     41 N          16.4279   70.9483   -4.1972 N.am    1  UNL1       -0.2994
     42 O          17.0266   68.8123   -4.1990 O.2     1  UNL1       -0.2751
     43 H          15.9622   71.6743   -3.7532 H       1  UNL1        0.1496
     44 C          20.1310   70.9832   -8.4905 C.3     1  UNL1        0.1693
     45 O          21.2141   71.8703   -8.2033 O.3     1  UNL1       -0.3794
     46 H          21.7454   72.1063   -8.9760 H       1  UNL1        0.2105
@<TRIPOS>BOND
     1    29    30    1
     2    30    41    1
     3    30    31    1
     4    31    34    1
     5    31    32    1
     6    32    35    1
     7    32    33    1
     8    33    36    1
     9    33    44    1
    10    39    40    1
    11    39    42    2
    12    39    41   am
    13    41    43    1
    14    29    28    1
    15    34    37    1
    16    35    38    1
    17    29    36    1
    18    44    45    1
    19    45    46    1
    20    15     6    1
    21    15    16   ar
    22    16    21    2
    23    16    17   ar
    24    17    23    1
    25    17    18   ar
    26    18    19   ar
    27    19    20   ar
    28    15    20   ar
    29    18    22    2
    30     6     7    1
    31     6    11    1
    32     7     9    1
    33     7     8    1
    34     8    13    1
    35     9    10    1
    36     9    12    1
    37    10     5    1
    38    10    11    1
    39    12    14    1
    40     5     4    1
    41     4     1    1
    42     1     2    1
    43     1    24    1
    44     1     3    2
    45    24    25    1
    46    28    25    1
    47    25    26    1
    48    25    27    2
@<TRIPOS>MOLECULE
UD2
 46 48 0 0 0
SMALL
GASTEIGER

@<TRIPOS>ATOM
      1 P          21.6735   71.1354   -0.1870 P.3     1  UNL1        0.2189
      2 O          21.5631   70.3012    1.1854 O.3     1  UNL1       -0.4371
      3 O          22.8997   70.7348   -0.9113 O.2     1  UNL1       -0.5170
      4 O          20.3850   70.8321   -1.1043 O.3     1  UNL1       -0.3112
      5 C          20.4357   70.8080   -2.5320 C.3     1  UNL1        0.1811
      6 C          17.9629   70.6617   -5.1398 C.3     1  UNL1        0.2383
      7 C          17.9390   69.2501   -4.5005 C.3     1  UNL1        0.1895
      8 O          16.6341   68.6740   -4.5848 O.3     1  UNL1       -0.3779
      9 C          18.3151   69.5528   -3.0293 C.3     1  UNL1        0.1713
     10 C          19.0167   70.9229   -3.0944 C.3     1  UNL1        0.1764
     11 O          19.0687   71.3118   -4.4762 O.3     1  UNL1       -0.3308
     12 O          17.1406   69.6298   -2.2198 O.3     1  UNL1       -0.3794
     13 H          16.5684   67.7901   -4.1987 H       1  UNL1        0.2106
     14 H          16.6276   68.8109   -2.1908 H       1  UNL1        0.2105
     15 N          18.2068   70.5712   -6.5811 N.ar    1  UNL1       -0.2551
     16 C          17.1673   70.4582   -7.4270 C.ar    1  UNL1        0.3323
     17 N          17.3620   70.3730   -8.7563 N.ar    1  UNL1       -0.2743
     18 C          18.6116   70.4017   -9.2625 C.ar    1  UNL1        0.2626
     19 C          19.7150   70.5213   -8.3837 C.ar    1  UNL1        0.0795
     20 C          19.4902   70.6092   -7.0558 C.ar    1  UNL1        0.0869
     21 O          16.0351   70.4312   -6.9847 O.2     1  UNL1       -0.2464
     22 O          18.7891   70.3250  -10.4655 O.2     1  UNL1       -0.2670
     23 H          16.6014   70.2907   -9.3521 H       1  UNL1        0.1734
     24 O          21.7361   72.7099    0.1453 O.3     1  UNL1       -0.2703
     25 P          20.6586   73.7854    0.6699 P.3     1  UNL1        0.2208
     26 O          20.8600   75.1749   -0.1191 O.3     1  UNL1       -0.4371
     27 O          19.2920   73.2741    0.4263 O.2     1  UNL1       -0.5170
     28 O          20.8678   74.0286    2.2478 O.3     1  UNL1       -0.2865
     29 C          22.0034   74.7074    2.7871 C.3     1  UNL1        0.2611
     30 C          22.7337   73.7844    3.7656 C.3     1  UNL1        0.1582
     31 C          21.7979   73.4462    4.9301 C.3     1  UNL1        0.1625
     32 C          21.3355   74.7463    5.5936 C.3     1  UNL1        0.1686
     33 C          20.6589   75.6324    4.5443 C.3     1  UNL1        0.1760
     34 O          22.4958   72.6442    5.8857 O.3     1  UNL1       -0.3801
     35 O          22.4637   75.4305    6.1415 O.3     1  UNL1       -0.3794
     36 O          21.5725   75.8837    3.4747 O.3     1  UNL1       -0.3263
     37 H          21.9618   72.3917    6.6514 H       1  UNL1        0.2105
     38 H          22.2443   76.2655    6.5780 H       1  UNL1        0.2105
     39 C          24.4196   72.3233    2.7854 C.2     1  UNL1        0.2231
     40 C          24.8215   71.0560    2.0777 C.3     1  UNL1        0.0946
     41 N          23.1238   72.5515    3.0769 N.am    1  UNL1       -0.2994
     42 O          25.2627   73.1397    3.0936 O.2     1  UNL1       -0.2751
     43 H          22.4494   71.8996    2.8298 H       1  UNL1        0.1496
     44 C          20.2471   76.9587    5.1861 C.3     1  UNL1        0.1693
     45 O          19.8726   76.7343    6.5469 O.3     1  UNL1       -0.3794
     46 H          19.5991   77.5337    7.0171 H       1  UNL1        0.2105
@<TRIPOS>BOND
     1    29    30    1
     2    30    41    1
     3    30    31    1
     4    31    34    1
     5    31    32    1
     6    32    35    1
     7    32    33    1
     8    33    36    1
     9    33    44    1
    10    39    40    1
    11    39    42    2
    12    39    41   am
    13    41    43    1
    14    29    28    1
    15    34    37    1
    16    35    38    1
    17    29    36    1
    18    44    45    1
    19    45    46    1
    20    15     6    1
    21    15    16   ar
    22    16    21    2
    23    16    17   ar
    24    17    23    1
    25    17    18   ar
    26    18    19   ar
    27    19    20   ar
    28    15    20   ar
    29    18    22    2
    30     6     7    1
    31     6    11    1
    32     7     9    1
    33     7     8    1
    34     8    13    1
    35     9    10    1
    36     9    12    1
    37    10     5    1
    38    10    11    1
    39    12    14    1
    40     5     4    1
    41     4     1    1
    42     1     2    1
    43     1    24    1
    44     1     3    2
    45    24    25    1
    46    28    25    1
    47    25    26    1
    48    25    27    2
@<TRIPOS>MOLECULE
UD2
 46 48 0 0 0
SMALL
GASTEIGER

@<TRIPOS>ATOM
      1 P          22.8340   72.9602   -4.4949 P.3     1  UNL1        0.2189
      2 O          23.0627   73.7989   -5.8497 O.3     1  UNL1       -0.4371
      3 O          24.1096   72.3367   -4.0788 O.2     1  UNL1       -0.5170
      4 O          22.3154   73.9480   -3.3335 O.3     1  UNL1       -0.3112
      5 C          21.4336   73.5267   -2.2912 C.3     1  UNL1        0.1811
      6 C          23.2873   71.5695    0.0899 C.3     1  UNL1        0.2383
      7 C          21.8582   71.6544    0.6837 C.3     1  UNL1        0.1895
      8 O          21.5511   70.4839    1.4434 O.3     1  UNL1       -0.3779
      9 C          20.9810   71.7323   -0.5899 C.3     1  UNL1        0.1713
     10 C          21.9492   72.2192   -1.6848 C.3     1  UNL1        0.1764
     11 O          23.2245   72.4391   -1.0613 O.3     1  UNL1       -0.3308
     12 O          20.4622   70.4423   -0.9179 O.3     1  UNL1       -0.3794
     13 H          20.6676   70.4900    1.8359 H       1  UNL1        0.2106
     14 H          19.8925   70.0616   -0.2360 H       1  UNL1        0.2105
     15 N          24.2760   72.0588    1.0533 N.ar    1  UNL1       -0.2551
     16 C          24.9711   71.1813    1.7987 C.ar    1  UNL1        0.3323
     17 N          25.8858   71.6029    2.6920 N.ar    1  UNL1       -0.2743
     18 C          26.1211   72.9211    2.8518 C.ar    1  UNL1        0.2626
     19 C          25.3974   73.8558    2.0729 C.ar    1  UNL1        0.0795
     20 C          24.4894   73.4049    1.1820 C.ar    1  UNL1        0.0869
     21 O          24.7694   69.9898    1.6651 O.2     1  UNL1       -0.2464
     22 O          26.9490   73.3039    3.6596 O.2     1  UNL1       -0.2670
     23 H          26.3772   70.9568    3.2223 H       1  UNL1        0.1734
     24 O          21.7343   71.8125   -4.7530 O.3     1  UNL1       -0.2703
     25 P          20.5508   71.6197   -5.8278 P.3     1  UNL1        0.2208
     26 O          21.0499   72.1291   -7.2719 O.3     1  UNL1       -0.4371
     27 O          20.1864   70.1883   -5.9092 O.2     1  UNL1       -0.5170
     28 O          19.2661   72.4760   -5.3707 O.3     1  UNL1       -0.2865
     29 C          17.9299   71.9761   -5.4477 C.3     1  UNL1        0.2611
     30 C          17.3229   72.3462   -6.8032 C.3     1  UNL1        0.1582
     31 C          17.2564   73.8718   -6.9236 C.3     1  UNL1        0.1625
     32 C          16.4445   74.4308   -5.7520 C.3     1  UNL1        0.1686
     33 C          17.0856   73.9802   -4.4367 C.3     1  UNL1        0.1760
     34 O          16.6235   74.2262   -8.1553 O.3     1  UNL1       -0.3801
     35 O          15.1042   73.9411   -5.8229 O.3     1  UNL1       -0.3794
     36 O          17.1450   72.5529   -4.4020 O.3     1  UNL1       -0.3263
     37 H          16.5481   75.1796   -8.2983 H       1  UNL1        0.2105
     38 H          14.5316   74.2552   -5.1091 H       1  UNL1        0.2105
     39 C          17.6940   70.8124   -8.6599 C.2     1  UNL1        0.2231
     40 C          18.5534   70.2568   -9.7650 C.3     1  UNL1        0.0946
     41 N          18.1596   71.8062   -7.8779 N.am    1  UNL1       -0.2994
     42 O          16.5817   70.3651   -8.4730 O.2     1  UNL1       -0.2751
     43 H          19.0492   72.1635   -8.0262 H       1  UNL1        0.1496
     44 C          16.2463   74.4847   -3.2614 C.3     1  UNL1        0.1693
     45 O          15.2893   73.4883   -2.8960 O.3     1  UNL1       -0.3794
     46 H          14.7209   73.7407   -2.1555 H       1  UNL1        0.2105
@<TRIPOS>BOND
     1    29    30    1
     2    30    41    1
     3    30    31    1
     4    31    34    1
     5    31    32    1
     6    32    35    1
     7    32    33    1
     8    33    36    1
     9    33    44    1
    10    39    40    1
    11    39    42    2
    12    39    41   am
    13    41    43    1
    14    29    28    1
    15    34    37    1
    16    35    38    1
    17    29    36    1
    18    44    45    1
    19    45    46    1
    20    15     6    1
    21    15    16   ar
    22    16    21    2
    23    16    17   ar
    24    17    23    1
    25    17    18   ar
    26    18    19   ar
    27    19    20   ar
    28    15    20   ar
    29    18    22    2
    30     6     7    1
    31     6    11    1
    32     7     9    1
    33     7     8    1
    34     8    13    1
    35     9    10    1
    36     9    12    1
    37    10     5    1
    38    10    11    1
    39    12    14    1
    40     5     4    1
    41     4     1    1
    42     1     2    1
    43     1    24    1
    44     1     3    2
    45    24    25    1
    46    28    25    1
    47    25    26    1
    48    25    27    2
@<TRIPOS>MOLECULE
UD2
 46 48 0 0 0
SMALL
GASTEIGER

@<TRIPOS>ATOM
      1 P          21.6455   73.2730   -6.4898 P.3     1  UNL1        0.2189
      2 O          23.0588   72.9329   -7.1813 O.3     1  UNL1       -0.4371
      3 O          21.1503   74.5736   -6.9918 O.2     1  UNL1       -0.5170
      4 O          20.5812   72.1187   -6.8485 O.3     1  UNL1       -0.3112
      5 C          20.5559   71.4500   -8.1109 C.3     1  UNL1        0.1811
      6 C          17.4474   70.0805   -6.9284 C.3     1  UNL1        0.2383
      7 C          17.0322   71.1256   -7.9950 C.3     1  UNL1        0.1895
      8 O          15.8202   70.7374   -8.6447 O.3     1  UNL1       -0.3779
      9 C          18.2264   71.0778   -8.9793 C.3     1  UNL1        0.1713
     10 C          19.3756   70.4761   -8.1482 C.3     1  UNL1        0.1764
     11 O          18.8758   70.2627   -6.8185 O.3     1  UNL1       -0.3308
     12 O          17.9212   70.2376  -10.0936 O.3     1  UNL1       -0.3794
     13 H          15.5191   71.3598   -9.3204 H       1  UNL1        0.2106
     14 H          17.1670   70.5377  -10.6186 H       1  UNL1        0.2105
     15 N          16.7913   70.3603   -5.6493 N.ar    1  UNL1       -0.2551
     16 C          16.4151   69.3412   -4.8564 C.ar    1  UNL1        0.3323
     17 N          15.8100   69.5690   -3.6756 N.ar    1  UNL1       -0.2743
     18 C          15.5723   70.8320   -3.2673 C.ar    1  UNL1        0.2626
     19 C          15.9640   71.9143   -4.0915 C.ar    1  UNL1        0.0795
     20 C          16.5726   71.6568   -5.2682 C.ar    1  UNL1        0.0869
     21 O          16.6232   68.1972   -5.2117 O.2     1  UNL1       -0.2464
     22 O          15.0251   71.0396   -2.1986 O.2     1  UNL1       -0.2670
     23 H          15.5441   68.8226   -3.1166 H       1  UNL1        0.1734
     24 O          21.8340   73.3505   -4.8924 O.3     1  UNL1       -0.2703
     25 P          23.0665   73.7339   -3.9295 P.3     1  UNL1        0.2208
     26 O          24.3584   72.8646   -4.3404 O.3     1  UNL1       -0.4371
     27 O          23.3754   75.1735   -4.0728 O.2     1  UNL1       -0.5170
     28 O          22.6712   73.4189   -2.4008 O.3     1  UNL1       -0.2865
     29 C          23.5007   72.6546   -1.5238 C.3     1  UNL1        0.2611
     30 C          22.7279   71.4305   -1.0268 C.3     1  UNL1        0.1582
     31 C          21.5095   71.8978   -0.2247 C.3     1  UNL1        0.1625
     32 C          21.9810   72.7926    0.9248 C.3     1  UNL1        0.1686
     33 C          22.7827   73.9645    0.3523 C.3     1  UNL1        0.1760
     34 O          20.8228   70.7616    0.3053 O.3     1  UNL1       -0.3801
     35 O          22.8072   72.0358    1.8113 O.3     1  UNL1       -0.3794
     36 O          23.8831   73.4608   -0.4075 O.3     1  UNL1       -0.3263
     37 H          20.0382   70.9839    0.8251 H       1  UNL1        0.2105
     38 H          23.1431   72.5412    2.5647 H       1  UNL1        0.2105
     39 C          21.0506   70.8190   -2.6852 C.2     1  UNL1        0.2231
     40 C          20.5929   70.0006   -3.8639 C.3     1  UNL1        0.0946
     41 N          22.2834   70.6339   -2.1732 N.am    1  UNL1       -0.2994
     42 O          20.3093   71.6455   -2.1958 O.2     1  UNL1       -0.2751
     43 H          22.8760   69.9725   -2.5635 H       1  UNL1        0.1496
     44 C          23.3081   74.8309    1.4985 C.3     1  UNL1        0.1693
     45 O          24.6130   74.3853    1.8740 O.3     1  UNL1       -0.3794
     46 H          25.0088   74.8905    2.5973 H       1  UNL1        0.2105
@<TRIPOS>BOND
     1    29    30    1
     2    30    41    1
     3    30    31    1
     4    31    34    1
     5    31    32    1
     6    32    35    1
     7    32    33    1
     8    33    36    1
     9    33    44    1
    10    39    40    1
    11    39    42    2
    12    39    41   am
    13    41    43    1
    14    29    28    1
    15    34    37    1
    16    35    38    1
    17    29    36    1
    18    44    45    1
    19    45    46    1
    20    15     6    1
    21    15    16   ar
    22    16    21    2
    23    16    17   ar
    24    17    23    1
    25    17    18   ar
    26    18    19   ar
    27    19    20   ar
    28    15    20   ar
    29    18    22    2
    30     6     7    1
    31     6    11    1
    32     7     9    1
    33     7     8    1
    34     8    13    1
    35     9    10    1
    36     9    12    1
    37    10     5    1
    38    10    11    1
    39    12    14    1
    40     5     4    1
    41     4     1    1
    42     1     2    1
    43     1    24    1
    44     1     3    2
    45    24    25    1
    46    28    25    1
    47    25    26    1
    48    25    27    2
@<TRIPOS>MOLECULE
UD2
 46 48 0 0 0
SMALL
GASTEIGER

@<TRIPOS>ATOM
      1 P          21.6575   71.2068   -0.2184 P.3     1  UNL1        0.2189
      2 O          21.6278   70.0567    0.9076 O.3     1  UNL1       -0.4371
      3 O          22.8409   71.0181   -1.0860 O.2     1  UNL1       -0.5170
      4 O          20.3190   71.1197   -1.1097 O.3     1  UNL1       -0.3112
      5 C          20.3198   70.6934   -2.4734 C.3     1  UNL1        0.1811
      6 C          17.8935   70.6605   -5.1283 C.3     1  UNL1        0.2383
      7 C          17.8170   69.2401   -4.5129 C.3     1  UNL1        0.1895
      8 O          16.4980   68.7035   -4.6307 O.3     1  UNL1       -0.3779
      9 C          18.1739   69.5083   -3.0303 C.3     1  UNL1        0.1713
     10 C          18.9156   70.8583   -3.0599 C.3     1  UNL1        0.1764
     11 O          19.0047   71.2675   -4.4339 O.3     1  UNL1       -0.3308
     12 O          16.9870   69.6063   -2.2413 O.3     1  UNL1       -0.3794
     13 H          16.3996   67.8158   -4.2605 H       1  UNL1        0.2106
     14 H          16.4503   68.8024   -2.2353 H       1  UNL1        0.2105
     15 N          18.1618   70.5859   -6.5662 N.ar    1  UNL1       -0.2551
     16 C          17.1358   70.5099   -7.4325 C.ar    1  UNL1        0.3323
     17 N          17.3530   70.4401   -8.7592 N.ar    1  UNL1       -0.2743
     18 C          18.6120   70.4472   -9.2421 C.ar    1  UNL1        0.2626
     19 C          19.7015   70.5278   -8.3417 C.ar    1  UNL1        0.0795
     20 C          19.4543   70.6010   -7.0169 C.ar    1  UNL1        0.0869
     21 O          15.9952   70.5028   -7.0112 O.2     1  UNL1       -0.2464
     22 O          18.8100   70.3845  -10.4427 O.2     1  UNL1       -0.2670
     23 H          16.6018   70.3846   -9.3698 H       1  UNL1        0.1734
     24 O          21.7361   72.6506    0.4907 O.3     1  UNL1       -0.2703
     25 P          21.1557   73.2534    1.8664 P.3     1  UNL1        0.2208
     26 O          20.0397   74.3664    1.5354 O.3     1  UNL1       -0.4371
     27 O          20.5463   72.1664    2.6634 O.2     1  UNL1       -0.5170
     28 O          22.3540   73.9272    2.7047 O.3     1  UNL1       -0.2865
     29 C          23.1106   73.2186    3.6879 C.3     1  UNL1        0.2611
     30 C          24.1636   74.1506    4.2922 C.3     1  UNL1        0.1582
     31 C          25.1318   74.5948    3.1914 C.3     1  UNL1        0.1625
     32 C          25.7563   73.3553    2.5450 C.3     1  UNL1        0.1686
     33 C          24.6416   72.4537    2.0078 C.3     1  UNL1        0.1760
     34 O          26.1615   75.4067    3.7607 O.3     1  UNL1       -0.3801
     35 O          26.5204   72.6422    3.5191 O.3     1  UNL1       -0.3794
     36 O          23.7594   72.1021    3.0756 O.3     1  UNL1       -0.3263
     37 H          26.8111   75.7246    3.1187 H       1  UNL1        0.2105
     38 H          26.9452   71.8426    3.1783 H       1  UNL1        0.2105
     39 C          23.8963   75.7980    6.0677 C.2     1  UNL1        0.2231
     40 C          23.2193   77.0060    6.6602 C.3     1  UNL1        0.0946
     41 N          23.5044   75.3256    4.8680 N.am    1  UNL1       -0.2994
     42 O          24.7951   75.2495    6.6706 O.2     1  UNL1       -0.2751
     43 H          22.7852   75.7632    4.3861 H       1  UNL1        0.1496
     44 C          25.2546   71.1844    1.4133 C.3     1  UNL1        0.1693
     45 O          24.5389   70.0418    1.8872 O.3     1  UNL1       -0.3794
     46 H          24.8737   69.1996    1.5501 H       1  UNL1        0.2105
@<TRIPOS>BOND
     1    29    30    1
     2    30    41    1
     3    30    31    1
     4    31    34    1
     5    31    32    1
     6    32    35    1
     7    32    33    1
     8    33    36    1
     9    33    44    1
    10    39    40    1
    11    39    42    2
    12    39    41   am
    13    41    43    1
    14    29    28    1
    15    34    37    1
    16    35    38    1
    17    29    36    1
    18    44    45    1
    19    45    46    1
    20    15     6    1
    21    15    16   ar
    22    16    21    2
    23    16    17   ar
    24    17    23    1
    25    17    18   ar
    26    18    19   ar
    27    19    20   ar
    28    15    20   ar
    29    18    22    2
    30     6     7    1
    31     6    11    1
    32     7     9    1
    33     7     8    1
    34     8    13    1
    35     9    10    1
    36     9    12    1
    37    10     5    1
    38    10    11    1
    39    12    14    1
    40     5     4    1
    41     4     1    1
    42     1     2    1
    43     1    24    1
    44     1     3    2
    45    24    25    1
    46    28    25    1
    47    25    26    1
    48    25    27    2
@<TRIPOS>MOLECULE
UD2
 46 48 0 0 0
SMALL
GASTEIGER

@<TRIPOS>ATOM
      1 P          16.6756   69.9842   -2.8196 P.3     1  UNL1        0.2189
      2 O          17.9025   69.1985   -2.1349 O.3     1  UNL1       -0.4371
      3 O          16.2599   69.2751   -4.0498 O.2     1  UNL1       -0.5170
      4 O          15.4375   70.0460   -1.7914 O.3     1  UNL1       -0.3112
      5 C          15.1783   69.0262   -0.8249 C.3     1  UNL1        0.1811
      6 C          12.2473   68.0244    1.0034 C.3     1  UNL1        0.2383
      7 C          12.5434   69.4626    1.4994 C.3     1  UNL1        0.1895
      8 O          11.3365   70.1349    1.8642 O.3     1  UNL1       -0.3779
      9 C          13.1816   70.1134    0.2478 C.3     1  UNL1        0.1713
     10 C          13.6695   68.9170   -0.5914 C.3     1  UNL1        0.1764
     11 O          13.3752   67.7241    0.1528 O.3     1  UNL1       -0.3308
     12 O          12.2065   70.8671   -0.4746 O.3     1  UNL1       -0.3794
     13 H          11.4697   71.0383    2.1816 H       1  UNL1        0.2106
     14 H          11.8221   71.5982    0.0277 H       1  UNL1        0.2105
     15 N          12.1884   67.0917    2.1311 N.ar    1  UNL1       -0.2551
     16 C          13.3287   66.6251    2.6703 C.ar    1  UNL1        0.3323
     17 N          13.3044   65.7668    3.7071 N.ar    1  UNL1       -0.2743
     18 C          12.1271   65.3611    4.2248 C.ar    1  UNL1        0.2626
     19 C          10.9190   65.8451    3.6677 C.ar    1  UNL1        0.0795
     20 C          10.9732   66.7080    2.6313 C.ar    1  UNL1        0.0869
     21 O          14.3975   66.9826    2.2138 O.2     1  UNL1       -0.2464
     22 O          12.1037   64.5846    5.1635 O.2     1  UNL1       -0.2670
     23 H          14.1359   65.4392    4.0832 H       1  UNL1        0.1734
     24 O          17.1377   71.4810   -3.1926 O.3     1  UNL1       -0.2703
     25 P          17.0854   72.3645   -4.5378 P.3     1  UNL1        0.2208
     26 O          15.7587   71.9933   -5.3719 O.3     1  UNL1       -0.4371
     27 O          17.0594   73.8008   -4.1844 O.2     1  UNL1       -0.5170
     28 O          18.3871   72.0554   -5.4338 O.3     1  UNL1       -0.2865
     29 C          18.9793   70.7584   -5.5249 C.3     1  UNL1        0.2611
     30 C          20.4998   70.8807   -5.4000 C.3     1  UNL1        0.1582
     31 C          21.0335   71.7186   -6.5660 C.3     1  UNL1        0.1625
     32 C          20.6100   71.0665   -7.8850 C.3     1  UNL1        0.1686
     33 C          19.0848   70.9371   -7.9142 C.3     1  UNL1        0.1760
     34 O          22.4601   71.7766   -6.4983 O.3     1  UNL1       -0.3801
     35 O          21.2020   69.7703   -7.9887 O.3     1  UNL1       -0.3794
     36 O          18.6516   70.1732   -6.7869 O.3     1  UNL1       -0.3263
     37 H          22.8665   72.2933   -7.2076 H       1  UNL1        0.2105
     38 H          20.9754   69.2976   -8.8019 H       1  UNL1        0.2105
     39 C          20.9815   72.8738   -4.0835 C.2     1  UNL1        0.2231
     40 C          21.3265   73.5472   -2.7811 C.3     1  UNL1        0.0946
     41 N          20.8356   71.5350   -4.1329 N.am    1  UNL1       -0.2994
     42 O          20.8348   73.5366   -5.0891 O.2     1  UNL1       -0.2751
     43 H          20.9538   71.0045   -3.3293 H       1  UNL1        0.1496
     44 C          18.6575   70.2321   -9.2029 C.3     1  UNL1        0.1693
     45 O          18.2656   71.2064  -10.1722 O.3     1  UNL1       -0.3794
     46 H          17.9816   70.8300  -11.0165 H       1  UNL1        0.2105
@<TRIPOS>BOND
     1    29    30    1
     2    30    41    1
     3    30    31    1
     4    31    34    1
     5    31    32    1
     6    32    35    1
     7    32    33    1
     8    33    36    1
     9    33    44    1
    10    39    40    1
    11    39    42    2
    12    39    41   am
    13    41    43    1
    14    29    28    1
    15    34    37    1
    16    35    38    1
    17    29    36    1
    18    44    45    1
    19    45    46    1
    20    15     6    1
    21    15    16   ar
    22    16    21    2
    23    16    17   ar
    24    17    23    1
    25    17    18   ar
    26    18    19   ar
    27    19    20   ar
    28    15    20   ar
    29    18    22    2
    30     6     7    1
    31     6    11    1
    32     7     9    1
    33     7     8    1
    34     8    13    1
    35     9    10    1
    36     9    12    1
    37    10     5    1
    38    10    11    1
    39    12    14    1
    40     5     4    1
    41     4     1    1
    42     1     2    1
    43     1    24    1
    44     1     3    2
    45    24    25    1
    46    28    25    1
    47    25    26    1
    48    25    27    2
@<TRIPOS>MOLECULE
UD2
 46 48 0 0 0
SMALL
GASTEIGER

@<TRIPOS>ATOM
      1 P          22.9975   71.5914   -2.6973 P.3     1  UNL1        0.2189
      2 O          23.3000   73.1674   -2.5706 O.3     1  UNL1       -0.4371
      3 O          24.1770   70.9066   -3.2706 O.2     1  UNL1       -0.5170
      4 O          22.6822   70.9866   -1.2384 O.3     1  UNL1       -0.3112
      5 C          21.3771   70.9997   -0.6571 C.3     1  UNL1        0.1811
      6 C          23.1339   71.8959    2.3507 C.3     1  UNL1        0.2383
      7 C          22.5297   73.2288    1.8404 C.3     1  UNL1        0.1895
      8 O          22.2280   74.1023    2.9302 O.3     1  UNL1       -0.3779
      9 C          21.2339   72.7515    1.1400 C.3     1  UNL1        0.1713
     10 C          21.4915   71.2612    0.8467 C.3     1  UNL1        0.1764
     11 O          22.8226   70.9607    1.2952 O.3     1  UNL1       -0.3308
     12 O          20.1113   72.9038    2.0103 O.3     1  UNL1       -0.3794
     13 H          21.8482   74.9499    2.6618 H       1  UNL1        0.2106
     14 H          19.9391   73.8173    2.2752 H       1  UNL1        0.2105
     15 N          24.5834   72.0184    2.5212 N.ar    1  UNL1       -0.2551
     16 C          25.3551   70.9179    2.4749 C.ar    1  UNL1        0.3323
     17 N          26.6899   71.0009    2.6286 N.ar    1  UNL1       -0.2743
     18 C          27.2767   72.1981    2.8308 C.ar    1  UNL1        0.2626
     19 C          26.4765   73.3648    2.8808 C.ar    1  UNL1        0.0795
     20 C          25.1413   73.2527    2.7193 C.ar    1  UNL1        0.0869
     21 O          24.8397   69.8318    2.2930 O.2     1  UNL1       -0.2464
     22 O          28.4848   72.2746    2.9697 O.2     1  UNL1       -0.2670
     23 H          27.2315   70.1974    2.5937 H       1  UNL1        0.1734
     24 O          21.7251   71.3644   -3.6580 O.3     1  UNL1       -0.2703
     25 P          21.2027   72.0716   -5.0070 P.3     1  UNL1        0.2208
     26 O          20.8734   73.6195   -4.7080 O.3     1  UNL1       -0.4371
     27 O          22.2497   71.9829   -6.0482 O.2     1  UNL1       -0.5170
     28 O          19.8698   71.3285   -5.5208 O.3     1  UNL1       -0.2865
     29 C          18.7677   72.0237   -6.1067 C.3     1  UNL1        0.2611
     30 C          17.4585   71.3469   -5.6936 C.3     1  UNL1        0.1582
     31 C          17.4431   69.9129   -6.2319 C.3     1  UNL1        0.1625
     32 C          17.6240   69.9478   -7.7519 C.3     1  UNL1        0.1686
     33 C          18.9272   70.6786   -8.0858 C.3     1  UNL1        0.1760
     34 O          16.1929   69.2972   -5.9138 O.3     1  UNL1       -0.3801
     35 O          16.5234   70.6363   -8.3483 O.3     1  UNL1       -0.3794
     36 O          18.8891   71.9947   -7.5303 O.3     1  UNL1       -0.3263
     37 H          16.1138   68.3849   -6.2247 H       1  UNL1        0.2105
     38 H          16.5725   70.6971   -9.3127 H       1  UNL1        0.2105
     39 C          17.8368   70.2672   -3.5421 C.2     1  UNL1        0.2231
     40 C          17.7365   70.2412   -2.0395 C.3     1  UNL1        0.0946
     41 N          17.3604   71.3223   -4.2319 N.am    1  UNL1       -0.2994
     42 O          18.3467   69.3378   -4.1323 O.2     1  UNL1       -0.2751
     43 H          16.9517   72.0651   -3.7605 H       1  UNL1        0.1496
     44 C          19.0857   70.7701   -9.6046 C.3     1  UNL1        0.1693
     45 O          18.0900   69.9637  -10.2376 O.3     1  UNL1       -0.3794
     46 H          18.1306   69.9739  -11.2037 H       1  UNL1        0.2105
@<TRIPOS>BOND
     1    29    30    1
     2    30    41    1
     3    30    31    1
     4    31    34    1
     5    31    32    1
     6    32    35    1
     7    32    33    1
     8    33    36    1
     9    33    44    1
    10    39    40    1
    11    39    42    2
    12    39    41   am
    13    41    43    1
    14    29    28    1
    15    34    37    1
    16    35    38    1
    17    29    36    1
    18    44    45    1
    19    45    46    1
    20    15     6    1
    21    15    16   ar
    22    16    21    2
    23    16    17   ar
    24    17    23    1
    25    17    18   ar
    26    18    19   ar
    27    19    20   ar
    28    15    20   ar
    29    18    22    2
    30     6     7    1
    31     6    11    1
    32     7     9    1
    33     7     8    1
    34     8    13    1
    35     9    10    1
    36     9    12    1
    37    10     5    1
    38    10    11    1
    39    12    14    1
    40     5     4    1
    41     4     1    1
    42     1     2    1
    43     1    24    1
    44     1     3    2
    45    24    25    1
    46    28    25    1
    47    25    26    1
    48    25    27    2
@<TRIPOS>MOLECULE
UD2
 46 48 0 0 0
SMALL
GASTEIGER

@<TRIPOS>ATOM
      1 P          22.4691   72.5286   -3.7396 P.3     1  UNL1        0.2189
      2 O          22.8895   74.0739   -3.5766 O.3     1  UNL1       -0.4371
      3 O          23.6859   71.6886   -3.7922 O.2     1  UNL1       -0.5170
      4 O          21.5637   72.0837   -2.4842 O.3     1  UNL1       -0.3112
      5 C          21.4942   72.8351   -1.2710 C.3     1  UNL1        0.1811
      6 C          23.5939   72.7384    1.6477 C.3     1  UNL1        0.2383
      7 C          23.3135   71.2498    1.3199 C.3     1  UNL1        0.1895
      8 O          24.4130   70.4254    1.7113 O.3     1  UNL1       -0.3779
      9 C          23.1656   71.2783   -0.2211 C.3     1  UNL1        0.1713
     10 C          22.8367   72.7491   -0.5407 C.3     1  UNL1        0.1764
     11 O          22.7586   73.4515    0.7099 O.3     1  UNL1       -0.3308
     12 O          24.3903   70.8919   -0.8470 O.3     1  UNL1       -0.3794
     13 H          24.2849   69.4850    1.5273 H       1  UNL1        0.2106
     14 H          24.6761   69.9936   -0.6326 H       1  UNL1        0.2105
     15 N          23.2026   73.0459    3.0251 N.ar    1  UNL1       -0.2551
     16 C          21.9969   72.6583    3.4777 C.ar    1  UNL1        0.3323
     17 N          21.6109   72.9275    4.7389 N.ar    1  UNL1       -0.2743
     18 C          22.4350   73.5932    5.5734 C.ar    1  UNL1        0.2626
     19 C          23.7075   74.0063    5.1106 C.ar    1  UNL1        0.0795
     20 C          24.0700   73.7192    3.8426 C.ar    1  UNL1        0.0869
     21 O          21.2436   72.0571    2.7364 O.2     1  UNL1       -0.2464
     22 O          22.0870   73.8371    6.7153 O.2     1  UNL1       -0.2670
     23 H          20.7377   72.6418    5.0487 H       1  UNL1        0.1734
     24 O          21.6281   72.3415   -5.1001 O.3     1  UNL1       -0.2703
     25 P          20.3339   73.0692   -5.7233 P.3     1  UNL1        0.2208
     26 O          19.9704   74.3657   -4.8397 O.3     1  UNL1       -0.4371
     27 O          20.6231   73.4854   -7.1131 O.2     1  UNL1       -0.5170
     28 O          19.0889   72.0482   -5.7164 O.3     1  UNL1       -0.2865
     29 C          19.2463   70.6284   -5.7418 C.3     1  UNL1        0.2611
     30 C          18.1426   70.0070   -6.6012 C.3     1  UNL1        0.1582
     31 C          16.7816   70.3127   -5.9683 C.3     1  UNL1        0.1625
     32 C          16.7675   69.7816   -4.5323 C.3     1  UNL1        0.1686
     33 C          17.9245   70.4119   -3.7525 C.3     1  UNL1        0.1760
     34 O          15.7498   69.6742   -6.7239 O.3     1  UNL1       -0.3801
     35 O          16.9186   68.3610   -4.5470 O.3     1  UNL1       -0.3794
     36 O          19.1577   70.1157   -4.4108 O.3     1  UNL1       -0.3263
     37 H          14.8591   69.8262   -6.3793 H       1  UNL1        0.2105
     38 H          16.9193   67.9557   -3.6685 H       1  UNL1        0.2105
     39 C          19.1743   70.2092   -8.7995 C.2     1  UNL1        0.2231
     40 C          19.2279   70.7934  -10.1867 C.3     1  UNL1        0.0946
     41 N          18.1942   70.5759   -7.9503 N.am    1  UNL1       -0.2994
     42 O          20.0139   69.4079   -8.4457 O.2     1  UNL1       -0.2751
     43 H          17.5233   71.2173   -8.2324 H       1  UNL1        0.1496
     44 C          17.9535   69.8412   -2.3334 C.3     1  UNL1        0.1693
     45 O          17.2190   68.6158   -2.2969 O.3     1  UNL1       -0.3794
     46 H          17.1950   68.1968   -1.4258 H       1  UNL1        0.2105
@<TRIPOS>BOND
     1    29    30    1
     2    30    41    1
     3    30    31    1
     4    31    34    1
     5    31    32    1
     6    32    35    1
     7    32    33    1
     8    33    36    1
     9    33    44    1
    10    39    40    1
    11    39    42    2
    12    39    41   am
    13    41    43    1
    14    29    28    1
    15    34    37    1
    16    35    38    1
    17    29    36    1
    18    44    45    1
    19    45    46    1
    20    15     6    1
    21    15    16   ar
    22    16    21    2
    23    16    17   ar
    24    17    23    1
    25    17    18   ar
    26    18    19   ar
    27    19    20   ar
    28    15    20   ar
    29    18    22    2
    30     6     7    1
    31     6    11    1
    32     7     9    1
    33     7     8    1
    34     8    13    1
    35     9    10    1
    36     9    12    1
    37    10     5    1
    38    10    11    1
    39    12    14    1
    40     5     4    1
    41     4     1    1
    42     1     2    1
    43     1    24    1
    44     1     3    2
    45    24    25    1
    46    28    25    1
    47    25    26    1
    48    25    27    2
@<TRIPOS>MOLECULE
UD2
 46 48 0 0 0
SMALL
GASTEIGER

@<TRIPOS>ATOM
      1 P          21.8389   72.3691   -5.8174 P.3     1  UNL1        0.2189
      2 O          23.1868   72.8349   -6.5640 O.3     1  UNL1       -0.4371
      3 O          20.8704   73.4875   -5.8032 O.2     1  UNL1       -0.5170
      4 O          21.1989   71.1147   -6.5988 O.3     1  UNL1       -0.3112
      5 C          20.6095   71.2255   -7.8957 C.3     1  UNL1        0.1811
      6 C          17.3297   70.2057   -6.8282 C.3     1  UNL1        0.2383
      7 C          17.0696   71.2336   -7.9587 C.3     1  UNL1        0.1895
      8 O          15.8606   70.9289   -8.6567 O.3     1  UNL1       -0.3779
      9 C          18.3020   71.0297   -8.8736 C.3     1  UNL1        0.1713
     10 C          19.3457   70.3640   -7.9565 C.3     1  UNL1        0.1764
     11 O          18.7616   70.2602   -6.6482 O.3     1  UNL1       -0.3308
     12 O          17.9751   70.1700   -9.9666 O.3     1  UNL1       -0.3794
     13 H          15.6541   71.5442   -9.3732 H       1  UNL1        0.2106
     14 H          17.2801   70.5135  -10.5440 H       1  UNL1        0.2105
     15 N          16.6394   70.6045   -5.5996 N.ar    1  UNL1       -0.2551
     16 C          16.3715   69.6835   -4.6568 C.ar    1  UNL1        0.3323
     17 N          15.7381   70.0218   -3.5181 N.ar    1  UNL1       -0.2743
     18 C          15.3622   71.2991   -3.3042 C.ar    1  UNL1        0.2626
     19 C          15.6388   72.2791   -4.2877 C.ar    1  UNL1        0.0795
     20 C          16.2789   71.9126   -5.4180 C.ar    1  UNL1        0.0869
     21 O          16.7048   68.5281   -4.8361 O.2     1  UNL1       -0.2464
     22 O          14.7893   71.6066   -2.2738 O.2     1  UNL1       -0.2670
     23 H          15.5516   69.3450   -2.8492 H       1  UNL1        0.1734
     24 O          22.1843   71.9386   -4.3046 O.3     1  UNL1       -0.2703
     25 P          23.4927   72.0720   -3.3754 P.3     1  UNL1        0.2208
     26 O          24.2317   70.6442   -3.2818 O.3     1  UNL1       -0.4371
     27 O          24.4161   73.0671   -3.9632 O.2     1  UNL1       -0.5170
     28 O          23.0569   72.5490   -1.9005 O.3     1  UNL1       -0.2865
     29 C          22.3641   71.7024   -0.9816 C.3     1  UNL1        0.2611
     30 C          21.4065   72.5434   -0.1339 C.3     1  UNL1        0.1582
     31 C          22.2162   73.5540    0.6844 C.3     1  UNL1        0.1625
     32 C          23.2387   72.8002    1.5392 C.3     1  UNL1        0.1686
     33 C          24.1259   71.9491    0.6268 C.3     1  UNL1        0.1760
     34 O          21.3365   74.2942    1.5339 O.3     1  UNL1       -0.3801
     35 O          22.5555   71.9544    2.4661 O.3     1  UNL1       -0.3794
     36 O          23.3085   71.0526   -0.1283 O.3     1  UNL1       -0.3263
     37 H          21.7827   74.9546    2.0816 H       1  UNL1        0.2105
     38 H          23.1431   71.4446    3.0413 H       1  UNL1        0.2105
     39 C          19.4652   72.5926   -1.6058 C.2     1  UNL1        0.2231
     40 C          18.5072   73.3261   -2.5074 C.3     1  UNL1        0.0946
     41 N          20.4752   73.2575   -1.0109 N.am    1  UNL1       -0.2994
     42 O          19.3280   71.4023   -1.4147 O.2     1  UNL1       -0.2751
     43 H          20.5859   74.2090   -1.1642 H       1  UNL1        0.1496
     44 C          25.1116   71.1468    1.4783 C.3     1  UNL1        0.1693
     45 O          24.5176   69.9010    1.8492 O.3     1  UNL1       -0.3794
     46 H          25.0875   69.3390    2.3917 H       1  UNL1        0.2105
@<TRIPOS>BOND
     1    29    30    1
     2    30    41    1
     3    30    31    1
     4    31    34    1
     5    31    32    1
     6    32    35    1
     7    32    33    1
     8    33    36    1
     9    33    44    1
    10    39    40    1
    11    39    42    2
    12    39    41   am
    13    41    43    1
    14    29    28    1
    15    34    37    1
    16    35    38    1
    17    29    36    1
    18    44    45    1
    19    45    46    1
    20    15     6    1
    21    15    16   ar
    22    16    21    2
    23    16    17   ar
    24    17    23    1
    25    17    18   ar
    26    18    19   ar
    27    19    20   ar
    28    15    20   ar
    29    18    22    2
    30     6     7    1
    31     6    11    1
    32     7     9    1
    33     7     8    1
    34     8    13    1
    35     9    10    1
    36     9    12    1
    37    10     5    1
    38    10    11    1
    39    12    14    1
    40     5     4    1
    41     4     1    1
    42     1     2    1
    43     1    24    1
    44     1     3    2
    45    24    25    1
    46    28    25    1
    47    25    26    1
    48    25    27    2
@<TRIPOS>MOLECULE
UD2
 46 48 0 0 0
SMALL
GASTEIGER

@<TRIPOS>ATOM
      1 P          21.1424   71.2438   -0.0345 P.3     1  UNL1        0.2189
      2 O          21.6450   70.0482    0.9191 O.3     1  UNL1       -0.4371
      3 O          22.3019   71.8351   -0.7380 O.2     1  UNL1       -0.5170
      4 O          20.0972   70.6652   -1.1146 O.3     1  UNL1       -0.3112
      5 C          20.1959   70.9360   -2.5140 C.3     1  UNL1        0.1811
      6 C          17.8175   70.6888   -5.2007 C.3     1  UNL1        0.2383
      7 C          17.8308   69.2772   -4.5609 C.3     1  UNL1        0.1895
      8 O          16.5541   68.6481   -4.6870 O.3     1  UNL1       -0.3779
      9 C          18.1461   69.5949   -3.0787 C.3     1  UNL1        0.1713
     10 C          18.7925   70.9927   -3.1224 C.3     1  UNL1        0.1764
     11 O          18.8735   71.3836   -4.5023 O.3     1  UNL1       -0.3308
     12 O          16.9436   69.6234   -2.3079 O.3     1  UNL1       -0.3794
     13 H          16.5122   67.7621   -4.3022 H       1  UNL1        0.2106
     14 H          16.4640   68.7842   -2.2947 H       1  UNL1        0.2105
     15 N          18.1117   70.6086   -6.6332 N.ar    1  UNL1       -0.2551
     16 C          17.1015   70.5277   -7.5175 C.ar    1  UNL1        0.3323
     17 N          17.3426   70.4527   -8.8398 N.ar    1  UNL1       -0.2743
     18 C          18.6102   70.4595   -9.3000 C.ar    1  UNL1        0.2626
     19 C          19.6831   70.5453   -8.3805 C.ar    1  UNL1        0.0795
     20 C          19.4121   70.6237   -7.0607 C.ar    1  UNL1        0.0869
     21 O          15.9536   70.5208   -7.1167 O.2     1  UNL1       -0.2464
     22 O          18.8297   70.3921  -10.4966 O.2     1  UNL1       -0.2670
     23 H          16.6026   70.3937   -9.4636 H       1  UNL1        0.1734
     24 O          20.4212   72.3746    0.8568 O.3     1  UNL1       -0.2703
     25 P          20.7261   73.9278    1.1526 P.3     1  UNL1        0.2208
     26 O          20.7157   74.7495   -0.2325 O.3     1  UNL1       -0.4371
     27 O          19.6881   74.4713    2.0557 O.2     1  UNL1       -0.5170
     28 O          22.1710   74.0677    1.8493 O.3     1  UNL1       -0.2865
     29 C          22.5721   75.2255    2.5842 C.3     1  UNL1        0.2611
     30 C          24.0350   75.5484    2.2710 C.3     1  UNL1        0.1582
     31 C          24.9155   74.3805    2.7262 C.3     1  UNL1        0.1625
     32 C          24.6827   74.1314    4.2189 C.3     1  UNL1        0.1686
     33 C          23.1944   73.8629    4.4571 C.3     1  UNL1        0.1760
     34 O          26.2900   74.7044    2.5047 O.3     1  UNL1       -0.3801
     35 O          25.0862   75.2819    4.9638 O.3     1  UNL1       -0.3794
     36 O          22.4300   74.9736    3.9837 O.3     1  UNL1       -0.3263
     37 H          26.9056   74.0075    2.7702 H       1  UNL1        0.2105
     38 H          24.9658   75.1945    5.9198 H       1  UNL1        0.2105
     39 C          24.6372   76.9300    0.3562 C.2     1  UNL1        0.2231
     40 C          24.8012   77.1361   -1.1267 C.3     1  UNL1        0.0946
     41 N          24.1940   75.7481    0.8283 N.am    1  UNL1       -0.2994
     42 O          24.9041   77.8284    1.1268 O.2     1  UNL1       -0.2751
     43 H          23.9796   75.0299    0.2125 H       1  UNL1        0.1496
     44 C          22.9440   73.6720    5.9542 C.3     1  UNL1        0.1693
     45 O          21.5628   73.3775    6.1731 O.3     1  UNL1       -0.3794
     46 H          21.3310   73.2440    7.1023 H       1  UNL1        0.2105
@<TRIPOS>BOND
     1    29    30    1
     2    30    41    1
     3    30    31    1
     4    31    34    1
     5    31    32    1
     6    32    35    1
     7    32    33    1
     8    33    36    1
     9    33    44    1
    10    39    40    1
    11    39    42    2
    12    39    41   am
    13    41    43    1
    14    29    28    1
    15    34    37    1
    16    35    38    1
    17    29    36    1
    18    44    45    1
    19    45    46    1
    20    15     6    1
    21    15    16   ar
    22    16    21    2
    23    16    17   ar
    24    17    23    1
    25    17    18   ar
    26    18    19   ar
    27    19    20   ar
    28    15    20   ar
    29    18    22    2
    30     6     7    1
    31     6    11    1
    32     7     9    1
    33     7     8    1
    34     8    13    1
    35     9    10    1
    36     9    12    1
    37    10     5    1
    38    10    11    1
    39    12    14    1
    40     5     4    1
    41     4     1    1
    42     1     2    1
    43     1    24    1
    44     1     3    2
    45    24    25    1
    46    28    25    1
    47    25    26    1
    48    25    27    2
@<TRIPOS>MOLECULE
UD2
 46 48 0 0 0
SMALL
GASTEIGER

@<TRIPOS>ATOM
      1 P          23.3256   72.1887   -3.4876 P.3     1  UNL1        0.2189
      2 O          24.4512   72.9272   -4.3702 O.3     1  UNL1       -0.4371
      3 O          23.8535   70.8977   -2.9938 O.2     1  UNL1       -0.5170
      4 O          22.9289   73.1205   -2.2354 O.3     1  UNL1       -0.3112
      5 C          22.0401   72.6950   -1.2008 C.3     1  UNL1        0.1811
      6 C          24.2760   71.9149    1.5064 C.3     1  UNL1        0.2383
      7 C          22.8777   72.0032    2.1690 C.3     1  UNL1        0.1895
      8 O          22.7896   71.1256    3.2931 O.3     1  UNL1       -0.3779
      9 C          21.9457   71.5320    1.0259 C.3     1  UNL1        0.1713
     10 C          22.7787   71.7476   -0.2521 C.3     1  UNL1        0.1764
     11 O          24.0294   72.3314    0.1458 O.3     1  UNL1       -0.3308
     12 O          21.6211   70.1499    1.1846 O.3     1  UNL1       -0.3794
     13 H          21.9335   71.1454    3.7418 H       1  UNL1        0.2106
     14 H          21.1473   69.9478    2.0026 H       1  UNL1        0.2105
     15 N          25.2164   72.8259    2.1628 N.ar    1  UNL1       -0.2551
     16 C          26.3593   72.3434    2.6820 C.ar    1  UNL1        0.3323
     17 N          27.2416   73.1576    3.2910 N.ar    1  UNL1       -0.2743
     18 C          26.9907   74.4790    3.3882 C.ar    1  UNL1        0.2626
     19 C          25.7919   75.0007    2.8452 C.ar    1  UNL1        0.0795
     20 C          24.9273   74.1620    2.2364 C.ar    1  UNL1        0.0869
     21 O          26.5988   71.1540    2.6015 O.2     1  UNL1       -0.2464
     22 O          27.7886   75.2170    3.9388 O.2     1  UNL1       -0.2670
     23 H          28.0604   72.7930    3.6610 H       1  UNL1        0.1734
     24 O          22.0208   71.9242   -4.3935 O.3     1  UNL1       -0.2703
     25 P          20.4898   71.5480   -4.0657 P.3     1  UNL1        0.2208
     26 O          20.4504   70.3684   -2.9698 O.3     1  UNL1       -0.4371
     27 O          19.7922   72.7388   -3.5331 O.2     1  UNL1       -0.5170
     28 O          19.7583   71.0545   -5.4125 O.3     1  UNL1       -0.2865
     29 C          18.8139   71.8565   -6.1240 C.3     1  UNL1        0.2611
     30 C          17.3995   71.3326   -5.8637 C.3     1  UNL1        0.1582
     31 C          17.2886   69.9007   -6.3965 C.3     1  UNL1        0.1625
     32 C          17.6458   69.8923   -7.8853 C.3     1  UNL1        0.1686
     33 C          19.0511   70.4718   -8.0677 C.3     1  UNL1        0.1760
     34 O          15.9501   69.4296   -6.2238 O.3     1  UNL1       -0.3801
     35 O          16.7034   70.6873   -8.6071 O.3     1  UNL1       -0.3794
     36 O          19.0943   71.7926   -7.5239 O.3     1  UNL1       -0.3263
     37 H          15.8076   68.5267   -6.5394 H       1  UNL1        0.2105
     38 H          16.8694   70.7276   -9.5594 H       1  UNL1        0.2105
     39 C          16.1379   72.1039   -3.9269 C.2     1  UNL1        0.2231
     40 C          15.8620   72.1132   -2.4462 C.3     1  UNL1        0.0946
     41 N          17.1319   71.3412   -4.4233 N.am    1  UNL1       -0.2994
     42 O          15.4651   72.7835   -4.6738 O.2     1  UNL1       -0.2751
     43 H          17.6707   70.7986   -3.8264 H       1  UNL1        0.1496
     44 C          19.3922   70.5222   -9.5582 C.3     1  UNL1        0.1693
     45 O          18.4192   71.3131  -10.2438 O.3     1  UNL1       -0.3794
     46 H          18.5729   71.3888  -11.1955 H       1  UNL1        0.2105
@<TRIPOS>BOND
     1    29    30    1
     2    30    41    1
     3    30    31    1
     4    31    34    1
     5    31    32    1
     6    32    35    1
     7    32    33    1
     8    33    36    1
     9    33    44    1
    10    39    40    1
    11    39    42    2
    12    39    41   am
    13    41    43    1
    14    29    28    1
    15    34    37    1
    16    35    38    1
    17    29    36    1
    18    44    45    1
    19    45    46    1
    20    15     6    1
    21    15    16   ar
    22    16    21    2
    23    16    17   ar
    24    17    23    1
    25    17    18   ar
    26    18    19   ar
    27    19    20   ar
    28    15    20   ar
    29    18    22    2
    30     6     7    1
    31     6    11    1
    32     7     9    1
    33     7     8    1
    34     8    13    1
    35     9    10    1
    36     9    12    1
    37    10     5    1
    38    10    11    1
    39    12    14    1
    40     5     4    1
    41     4     1    1
    42     1     2    1
    43     1    24    1
    44     1     3    2
    45    24    25    1
    46    28    25    1
    47    25    26    1
    48    25    27    2
