@<TRIPOS>MOLECULE
*****
 43 45 0 0 0
SMALL
GASTEIGER

@<TRIPOS>ATOM
      1 P          22.6821   71.4432   -2.4988 P.3     1  UNL1        0.2189
      2 O          22.1956   72.7124   -3.3762 O.co2   1  UNL1       -0.4371
      3 O          24.0197   70.8824   -2.8831 O.2     1  UNL1       -0.5170
      4 O          21.4376   70.4127   -2.5833 O.3     1  UNL1       -0.3112
      5 C          20.7117   70.3273   -3.7972 C.3     1  UNL1        0.1811
      6 O          18.8582   71.5087   -4.7681 O.3     1  UNL1       -0.3308
      7 O          17.1848   70.2838   -2.6024 O.3     1  UNL1       -0.3794
      8 O          16.6107   68.7138   -4.7569 O.3     1  UNL1       -0.3779
      9 C          18.2871   69.7255   -3.3156 C.3     1  UNL1        0.1713
     10 C          17.8693   69.3554   -4.7234 C.3     1  UNL1        0.1895
     11 C          19.2966   70.8389   -3.5657 C.3     1  UNL1        0.1764
     12 C          17.8541   70.7087   -5.4136 C.3     1  UNL1        0.2383
     13 H          16.5269   69.5913   -2.4307 H       1  UNL1        0.2105
     14 H          16.6720   67.8575   -4.3055 H       1  UNL1        0.2106
     15 O          15.9411   70.2557   -7.4417 O.2     1  UNL1       -0.2464
     16 O          19.1511   70.3604  -10.7471 O.2     1  UNL1       -0.2670
     17 N          18.1622   70.6135   -6.8127 N.ar    1  UNL1       -0.2551
     18 N          17.5410   70.3084   -9.0859 N.ar    1  UNL1       -0.2743
     19 C          17.1280   70.3831   -7.7495 C.ar    1  UNL1        0.3323
     20 C          19.4776   70.7484   -7.2434 C.ar    1  UNL1        0.0869
     21 C          19.8551   70.6733   -8.5213 C.ar    1  UNL1        0.0795
     22 C          18.8358   70.4346   -9.5635 C.ar    1  UNL1        0.2626
     23 H          16.8376   70.1480   -9.7562 H       1  UNL1        0.1734
     24 O          22.5946   71.9950   -0.9819 O.3     1  UNL1       -0.2703
     25 P          22.7337   71.2304    0.4355 P.3     1  UNL1        0.2208
     26 O          24.2495   70.6655    0.4052 O.co2   1  UNL1       -0.4371
     27 O          21.6866   70.1813    0.6741 O.2     1  UNL1       -0.5170
     28 O          22.7606   72.4110    1.5356 O.3     1  UNL1       -0.2858
     29 O          24.3488   72.5286    3.2907 O.3     1  UNL1       -0.3258
     30 O          21.2530   74.6095    5.0618 O.3     1  UNL1       -0.3794
     31 O          23.5831   76.0275    4.1629 O.3     1  UNL1       -0.3794
     32 O          20.6835   72.2951    3.4190 O.3     1  UNL1       -0.3775
     33 C          22.0798   74.1763    3.9782 C.3     1  UNL1        0.1715
     34 C          23.5182   74.6081    4.2702 C.3     1  UNL1        0.1694
     35 C          21.9887   72.6563    3.8576 C.3     1  UNL1        0.1967
     36 C          24.5027   73.9527    3.2923 C.3     1  UNL1        0.1761
     37 C          23.0429   72.1016    2.8979 C.3     1  UNL1        0.2704
     38 H          21.3059   75.5739    5.1434 H       1  UNL1        0.2105
     39 H          22.9564   76.4290    4.7852 H       1  UNL1        0.2105
     40 H          20.0253   72.6518    4.0350 H       1  UNL1        0.2106
     41 O          26.0078   74.6011    5.0310 O.3     1  UNL1       -0.3794
     42 C          25.9555   74.2440    3.6620 C.3     1  UNL1        0.1693
     43 H          26.9265   74.7890    5.2806 H       1  UNL1        0.2105
@<TRIPOS>UNITY_ATOM_ATTR
2 1
charge -1
26 1
charge -1
@<TRIPOS>BOND
     1    25    28    1
     2    25    24    1
     3    25    26    1
     4    25    27    2
     5     1     4    1
     6     1    24    1
     7     1     2    1
     8     1     3    2
     9     6    11    1
    10     6    12    1
    11    29    36    1
    12    29    37    1
    13     7     9    1
    14     7    13    1
    15     8    10    1
    16     8    14    1
    17    28    37    1
    18     4     5    1
    19    30    33    1
    20    30    38    1
    21    31    34    1
    22    31    39    1
    23    32    35    1
    24    32    40    1
    25    41    42    1
    26    41    43    1
    27    15    19    2
    28    16    22    2
    29    17    12    1
    30    17    19   ar
    31    17    20   ar
    32    18    19   ar
    33    18    22   ar
    34    18    23    1
    35     9    10    1
    36     9    11    1
    37    10    12    1
    38    11     5    1
    39    33    34    1
    40    33    35    1
    41    34    36    1
    42    35    37    1
    43    36    42    1
    44    20    21   ar
    45    21    22   ar
@<TRIPOS>MOLECULE
*****
 43 45 0 0 0
SMALL
GASTEIGER

@<TRIPOS>ATOM
      1 P          21.3797   71.9613   -2.2688 P.3     1  UNL1        0.2189
      2 O          21.5983   72.9789   -3.5075 O.co2   1  UNL1       -0.4371
      3 O          22.3532   70.8213   -2.2058 O.2     1  UNL1       -0.5170
      4 O          19.8192   71.5477   -2.3768 O.3     1  UNL1       -0.3112
      5 C          19.3505   70.9883   -3.5914 C.3     1  UNL1        0.1811
      6 O          17.5906   71.7747   -5.0260 O.3     1  UNL1       -0.3308
      7 O          15.7046   70.3497   -3.1812 O.3     1  UNL1       -0.3794
      8 O          15.9033   68.6201   -5.2800 O.3     1  UNL1       -0.3779
      9 C          17.0170   69.9743   -3.5957 C.3     1  UNL1        0.1713
     10 C          16.9952   69.4807   -5.0273 C.3     1  UNL1        0.1895
     11 C          17.8539   71.2424   -3.7093 C.3     1  UNL1        0.1764
     12 C          16.9073   70.7812   -5.8078 C.3     1  UNL1        0.2383
     13 H          15.1515   69.5562   -3.1013 H       1  UNL1        0.2105
     14 H          16.0052   67.8072   -4.7608 H       1  UNL1        0.2106
     15 O          15.5066   70.5829   -8.2524 O.2     1  UNL1       -0.2464
     16 O          19.4149   70.4354  -10.6906 O.2     1  UNL1       -0.2670
     17 N          17.5337   70.6900   -7.0964 N.ar    1  UNL1       -0.2551
     18 N          17.4538   70.5098   -9.4645 N.ar    1  UNL1       -0.2743
     19 C          16.7392   70.5932   -8.2626 C.ar    1  UNL1        0.3323
     20 C          18.9209   70.6975   -7.1948 C.ar    1  UNL1        0.0869
     21 C          19.5869   70.6159   -8.3485 C.ar    1  UNL1        0.0795
     22 C          18.8316   70.5120   -9.6137 C.ar    1  UNL1        0.2626
     23 H          16.9212   70.4412  -10.2900 H       1  UNL1        0.1734
     24 O          21.4076   72.9417   -0.9839 O.3     1  UNL1       -0.2703
     25 P          20.8007   72.7600    0.5033 P.3     1  UNL1        0.2208
     26 O          20.9691   71.1752    0.7817 O.co2   1  UNL1       -0.4371
     27 O          19.3981   73.2711    0.6622 O.2     1  UNL1       -0.5170
     28 O          21.8823   73.4617    1.4744 O.3     1  UNL1       -0.2858
     29 O          23.1121   71.8831    2.7441 O.3     1  UNL1       -0.3258
     30 O          24.2998   75.3417    4.6620 O.3     1  UNL1       -0.3794
     31 O          26.1504   73.9599    2.9550 O.3     1  UNL1       -0.3794
     32 O          21.5636   75.0570    3.7609 O.3     1  UNL1       -0.3775
     33 C          23.9063   74.5411    3.5442 C.3     1  UNL1        0.1715
     34 C          24.9149   73.4007    3.3923 C.3     1  UNL1        0.1694
     35 C          22.5042   73.9890    3.7944 C.3     1  UNL1        0.1967
     36 C          24.4181   72.3518    2.3884 C.3     1  UNL1        0.1761
     37 C          22.1274   72.9183    2.7689 C.3     1  UNL1        0.2704
     38 H          25.1891   75.6957    4.5092 H       1  UNL1        0.2105
     39 H          26.4529   74.6210    3.5974 H       1  UNL1        0.2105
     40 H          21.8131   75.7280    4.4147 H       1  UNL1        0.2106
     41 O          24.6395   70.0759    1.6952 O.3     1  UNL1       -0.3794
     42 C          25.3324   71.1296    2.3386 C.3     1  UNL1        0.1693
     43 H          25.2094   69.2914    1.6561 H       1  UNL1        0.2105
@<TRIPOS>UNITY_ATOM_ATTR
2 1
charge -1
26 1
charge -1
@<TRIPOS>BOND
     1    25    28    1
     2    25    24    1
     3    25    26    1
     4    25    27    2
     5     1     4    1
     6     1    24    1
     7     1     2    1
     8     1     3    2
     9     6    11    1
    10     6    12    1
    11    29    36    1
    12    29    37    1
    13     7     9    1
    14     7    13    1
    15     8    10    1
    16     8    14    1
    17    28    37    1
    18     4     5    1
    19    30    33    1
    20    30    38    1
    21    31    34    1
    22    31    39    1
    23    32    35    1
    24    32    40    1
    25    41    42    1
    26    41    43    1
    27    15    19    2
    28    16    22    2
    29    17    12    1
    30    17    19   ar
    31    17    20   ar
    32    18    19   ar
    33    18    22   ar
    34    18    23    1
    35     9    10    1
    36     9    11    1
    37    10    12    1
    38    11     5    1
    39    33    34    1
    40    33    35    1
    41    34    36    1
    42    35    37    1
    43    36    42    1
    44    20    21   ar
    45    21    22   ar
@<TRIPOS>MOLECULE
*****
 43 45 0 0 0
SMALL
GASTEIGER

@<TRIPOS>ATOM
      1 P          23.0139   71.4091   -2.3752 P.3     1  UNL1        0.2189
      2 O          22.8946   73.0225   -2.3642 O.co2   1  UNL1       -0.4371
      3 O          24.2064   70.8667   -3.1067 O.2     1  UNL1       -0.5170
      4 O          21.5720   70.9168   -2.9197 O.3     1  UNL1       -0.3112
      5 C          20.8175   71.8008   -3.7303 C.3     1  UNL1        0.1811
      6 O          18.5686   71.9207   -4.5680 O.3     1  UNL1       -0.3308
      7 O          17.7786   70.3543   -2.1363 O.3     1  UNL1       -0.3794
      8 O          17.8236   68.4460   -4.0838 O.3     1  UNL1       -0.3779
      9 C          18.9618   70.2566   -2.9273 C.3     1  UNL1        0.1713
     10 C          18.6585   69.5746   -4.2450 C.3     1  UNL1        0.1895
     11 C          19.3432   71.6616   -3.3767 C.3     1  UNL1        0.1764
     12 C          17.9891   70.6897   -5.0302 C.3     1  UNL1        0.2383
     13 H          17.5156   69.4692   -1.8374 H       1  UNL1        0.2105
     14 H          18.2942   67.7650   -3.5784 H       1  UNL1        0.2106
     15 O          15.9528   70.2119   -6.9284 O.2     1  UNL1       -0.2464
     16 O          18.9515   70.2577  -10.4281 O.2     1  UNL1       -0.2670
     17 N          18.2095   70.5726   -6.4441 N.ar    1  UNL1       -0.2551
     18 N          17.4476   70.2353   -8.6695 N.ar    1  UNL1       -0.2743
     19 C          17.1185   70.3312   -7.3113 C.ar    1  UNL1        0.3323
     20 C          19.4958   70.6972   -6.9577 C.ar    1  UNL1        0.0869
     21 C          19.7930   70.6019   -8.2553 C.ar    1  UNL1        0.0795
     22 C          18.7105   70.3506   -9.2284 C.ar    1  UNL1        0.2626
     23 H          16.7036   70.0670   -9.2924 H       1  UNL1        0.1734
     24 O          22.9581   71.0298   -0.8049 O.3     1  UNL1       -0.2703
     25 P          21.9333   71.4817    0.3606 P.3     1  UNL1        0.2208
     26 O          21.5688   70.0872    1.0955 O.co2   1  UNL1       -0.4371
     27 O          20.7424   72.2519   -0.1318 O.2     1  UNL1       -0.5170
     28 O          22.8500   72.2761    1.4253 O.3     1  UNL1       -0.2858
     29 O          22.2571   73.9446    3.0005 O.3     1  UNL1       -0.3258
     30 O          25.9852   75.3529    1.9192 O.3     1  UNL1       -0.3794
     31 O          25.6167   74.1549    4.5032 O.3     1  UNL1       -0.3794
     32 O          24.2454   74.1893   -0.0805 O.3     1  UNL1       -0.3775
     33 C          25.0009   74.3542    2.2006 C.3     1  UNL1        0.1715
     34 C          24.5398   74.5299    3.6488 C.3     1  UNL1        0.1694
     35 C          23.8271   74.5251    1.2381 C.3     1  UNL1        0.1967
     36 C          23.3008   73.6737    3.9435 C.3     1  UNL1        0.1761
     37 C          22.6298   73.6662    1.6494 C.3     1  UNL1        0.2704
     38 H          26.7335   75.2497    2.5266 H       1  UNL1        0.2105
     39 H          26.3929   74.7027    4.3066 H       1  UNL1        0.2105
     40 H          25.0035   74.7400   -0.3291 H       1  UNL1        0.2106
     41 O          23.2136   75.2077    5.7733 O.3     1  UNL1       -0.3794
     42 C          22.7303   73.9521    5.3324 C.3     1  UNL1        0.1693
     43 H          22.8584   75.3983    6.6560 H       1  UNL1        0.2105
@<TRIPOS>UNITY_ATOM_ATTR
2 1
charge -1
26 1
charge -1
@<TRIPOS>BOND
     1    25    28    1
     2    25    24    1
     3    25    26    1
     4    25    27    2
     5     1     4    1
     6     1    24    1
     7     1     2    1
     8     1     3    2
     9     6    11    1
    10     6    12    1
    11    29    36    1
    12    29    37    1
    13     7     9    1
    14     7    13    1
    15     8    10    1
    16     8    14    1
    17    28    37    1
    18     4     5    1
    19    30    33    1
    20    30    38    1
    21    31    34    1
    22    31    39    1
    23    32    35    1
    24    32    40    1
    25    41    42    1
    26    41    43    1
    27    15    19    2
    28    16    22    2
    29    17    12    1
    30    17    19   ar
    31    17    20   ar
    32    18    19   ar
    33    18    22   ar
    34    18    23    1
    35     9    10    1
    36     9    11    1
    37    10    12    1
    38    11     5    1
    39    33    34    1
    40    33    35    1
    41    34    36    1
    42    35    37    1
    43    36    42    1
    44    20    21   ar
    45    21    22   ar
@<TRIPOS>MOLECULE
*****
 43 45 0 0 0
SMALL
GASTEIGER

@<TRIPOS>ATOM
      1 P          21.5273   72.5919   -4.7459 P.3     1  UNL1        0.2189
      2 O          21.2663   74.1833   -4.6163 O.co2   1  UNL1       -0.4371
      3 O          22.4967   72.1940   -5.8199 O.2     1  UNL1       -0.5170
      4 O          20.0417   71.9636   -4.8724 O.3     1  UNL1       -0.3112
      5 C          19.4970   71.2853   -3.7539 C.3     1  UNL1        0.1811
      6 O          17.6089   71.7651   -5.1606 O.3     1  UNL1       -0.3308
      7 O          15.9727   70.2339   -3.1683 O.3     1  UNL1       -0.3794
      8 O          16.3173   68.4193   -5.1746 O.3     1  UNL1       -0.3779
      9 C          17.3078   69.9968   -3.6120 C.3     1  UNL1        0.1713
     10 C          17.3018   69.4198   -5.0122 C.3     1  UNL1        0.1895
     11 C          17.9775   71.3482   -3.8277 C.3     1  UNL1        0.1764
     12 C          17.0293   70.6512   -5.8593 C.3     1  UNL1        0.2383
     13 H          15.5248   69.3851   -3.0235 H       1  UNL1        0.2105
     14 H          16.5353   67.6572   -4.6156 H       1  UNL1        0.2106
     15 O          15.5716   70.6845   -8.2784 O.2     1  UNL1       -0.2464
     16 O          19.4052   70.2943  -10.8067 O.2     1  UNL1       -0.2670
     17 N          17.6211   70.5602   -7.1643 N.ar    1  UNL1       -0.2551
     18 N          17.4817   70.4904   -9.5354 N.ar    1  UNL1       -0.2743
     19 C          16.7998   70.5852   -8.3155 C.ar    1  UNL1        0.3323
     20 C          19.0012   70.4481   -7.2930 C.ar    1  UNL1        0.0869
     21 C          19.6359   70.3574   -8.4636 C.ar    1  UNL1        0.0795
     22 C          18.8511   70.3761   -9.7149 C.ar    1  UNL1        0.2626
     23 H          16.9300   70.5053  -10.3510 H       1  UNL1        0.1734
     24 O          21.9725   72.1736   -3.2493 O.3     1  UNL1       -0.2703
     25 P          23.4338   72.0728   -2.5656 P.3     1  UNL1        0.2208
     26 O          24.1314   73.4746   -2.9726 O.co2   1  UNL1       -0.4371
     27 O          24.2158   70.8540   -2.9617 O.2     1  UNL1       -0.5170
     28 O          23.1533   72.2019   -0.9814 O.3     1  UNL1       -0.2858
     29 O          24.1693   70.7547    0.5966 O.3     1  UNL1       -0.3258
     30 O          20.8375   71.8646    2.7687 O.3     1  UNL1       -0.3794
     31 O          23.4162   72.8935    3.5031 O.3     1  UNL1       -0.3794
     32 O          20.6168   71.4075   -0.0812 O.3     1  UNL1       -0.3775
     33 C          21.9122   72.0529    1.8441 C.3     1  UNL1        0.1715
     34 C          23.2296   71.8190    2.5861 C.3     1  UNL1        0.1694
     35 C          21.7600   71.0604    0.6929 C.3     1  UNL1        0.1967
     36 C          24.4097   71.7400    1.6082 C.3     1  UNL1        0.1761
     37 C          23.0080   71.0249   -0.1910 C.3     1  UNL1        0.2704
     38 H          20.9279   72.4921    3.5019 H       1  UNL1        0.2105
     39 H          22.6641   72.9326    4.1145 H       1  UNL1        0.2105
     40 H          19.8335   71.4264    0.4896 H       1  UNL1        0.2106
     41 O          26.2794   72.5157    2.8776 O.3     1  UNL1       -0.3794
     42 C          25.7090   71.3509    2.3100 C.3     1  UNL1        0.1693
     43 H          27.1069   72.2832    3.3280 H       1  UNL1        0.2105
@<TRIPOS>UNITY_ATOM_ATTR
2 1
charge -1
26 1
charge -1
@<TRIPOS>BOND
     1    25    28    1
     2    25    24    1
     3    25    26    1
     4    25    27    2
     5     1     4    1
     6     1    24    1
     7     1     2    1
     8     1     3    2
     9     6    11    1
    10     6    12    1
    11    29    36    1
    12    29    37    1
    13     7     9    1
    14     7    13    1
    15     8    10    1
    16     8    14    1
    17    28    37    1
    18     4     5    1
    19    30    33    1
    20    30    38    1
    21    31    34    1
    22    31    39    1
    23    32    35    1
    24    32    40    1
    25    41    42    1
    26    41    43    1
    27    15    19    2
    28    16    22    2
    29    17    12    1
    30    17    19   ar
    31    17    20   ar
    32    18    19   ar
    33    18    22   ar
    34    18    23    1
    35     9    10    1
    36     9    11    1
    37    10    12    1
    38    11     5    1
    39    33    34    1
    40    33    35    1
    41    34    36    1
    42    35    37    1
    43    36    42    1
    44    20    21   ar
    45    21    22   ar
@<TRIPOS>MOLECULE
*****
 43 45 0 0 0
SMALL
GASTEIGER

@<TRIPOS>ATOM
      1 P          22.4179   71.4012   -2.9585 P.3     1  UNL1        0.2189
      2 O          22.2834   73.0066   -2.8108 O.co2   1  UNL1       -0.4371
      3 O          23.8075   70.9037   -3.2284 O.2     1  UNL1       -0.5170
      4 O          21.3064   71.0190   -4.0705 O.3     1  UNL1       -0.3112
      5 C          20.3541   70.0172   -3.7581 C.3     1  UNL1        0.1811
      6 O          18.6968   71.4011   -4.8125 O.3     1  UNL1       -0.3308
      7 O          16.7694   70.3086   -2.7921 O.3     1  UNL1       -0.3794
      8 O          16.1844   68.8502   -5.0209 O.3     1  UNL1       -0.3779
      9 C          17.8548   69.6557   -3.4486 C.3     1  UNL1        0.1713
     10 C          17.4960   69.3594   -4.8898 C.3     1  UNL1        0.1895
     11 C          18.9852   70.6655   -3.6034 C.3     1  UNL1        0.1764
     12 C          17.6625   70.7212   -5.5424 C.3     1  UNL1        0.2383
     13 H          16.0353   69.6833   -2.6817 H       1  UNL1        0.2105
     14 H          16.1295   67.9830   -4.5900 H       1  UNL1        0.2106
     15 O          15.8595   70.3698   -7.6880 O.2     1  UNL1       -0.2464
     16 O          19.2677   70.3600  -10.7904 O.2     1  UNL1       -0.2670
     17 N          18.0514   70.6240   -6.9210 N.ar    1  UNL1       -0.2551
     18 N          17.5580   70.3654   -9.2310 N.ar    1  UNL1       -0.2743
     19 C          17.0674   70.4472   -7.9216 C.ar    1  UNL1        0.3323
     20 C          19.3953   70.7043   -7.2693 C.ar    1  UNL1        0.0869
     21 C          19.8468   70.6231   -8.5226 C.ar    1  UNL1        0.0795
     22 C          18.8840   70.4383   -9.6275 C.ar    1  UNL1        0.2626
     23 H          16.8908   70.2419   -9.9447 H       1  UNL1        0.1734
     24 O          21.7621   70.8537   -1.5862 O.3     1  UNL1       -0.2703
     25 P          22.1431   71.1364   -0.0409 P.3     1  UNL1        0.2208
     26 O          23.7492   71.3268   -0.0836 O.co2   1  UNL1       -0.4371
     27 O          21.6701   70.0780    0.9131 O.2     1  UNL1       -0.5170
     28 O          21.5653   72.6134    0.2587 O.3     1  UNL1       -0.2858
     29 O          20.7947   72.7172    2.4974 O.3     1  UNL1       -0.3258
     30 O          19.5274   76.4236    1.1909 O.3     1  UNL1       -0.3794
     31 O          21.7583   76.2410    2.9901 O.3     1  UNL1       -0.3794
     32 O          19.3597   74.1354   -0.5743 O.3     1  UNL1       -0.3775
     33 C          20.4046   75.2962    1.2594 C.3     1  UNL1        0.1715
     34 C          20.8867   75.1508    2.7041 C.3     1  UNL1        0.1694
     35 C          19.6462   74.0460    0.8173 C.3     1  UNL1        0.1967
     36 C          21.6141   73.8158    2.9137 C.3     1  UNL1        0.1761
     37 C          20.4370   72.7709    1.1150 C.3     1  UNL1        0.2704
     38 H          20.0029   77.2208    1.4698 H       1  UNL1        0.2105
     39 H          21.2870   77.0779    2.8534 H       1  UNL1        0.2105
     40 H          18.8586   74.9466   -0.7496 H       1  UNL1        0.2106
     41 O          22.3210   72.2195    4.5449 O.3     1  UNL1       -0.3794
     42 C          21.9647   73.5798    4.3812 C.3     1  UNL1        0.1693
     43 H          22.5470   72.0546    5.4742 H       1  UNL1        0.2105
@<TRIPOS>UNITY_ATOM_ATTR
2 1
charge -1
26 1
charge -1
@<TRIPOS>BOND
     1    25    28    1
     2    25    24    1
     3    25    26    1
     4    25    27    2
     5     1     4    1
     6     1    24    1
     7     1     2    1
     8     1     3    2
     9     6    11    1
    10     6    12    1
    11    29    36    1
    12    29    37    1
    13     7     9    1
    14     7    13    1
    15     8    10    1
    16     8    14    1
    17    28    37    1
    18     4     5    1
    19    30    33    1
    20    30    38    1
    21    31    34    1
    22    31    39    1
    23    32    35    1
    24    32    40    1
    25    41    42    1
    26    41    43    1
    27    15    19    2
    28    16    22    2
    29    17    12    1
    30    17    19   ar
    31    17    20   ar
    32    18    19   ar
    33    18    22   ar
    34    18    23    1
    35     9    10    1
    36     9    11    1
    37    10    12    1
    38    11     5    1
    39    33    34    1
    40    33    35    1
    41    34    36    1
    42    35    37    1
    43    36    42    1
    44    20    21   ar
    45    21    22   ar
@<TRIPOS>MOLECULE
*****
 43 45 0 0 0
SMALL
GASTEIGER

@<TRIPOS>ATOM
      1 P          23.5456   73.5345   -4.1316 P.3     1  UNL1        0.2189
      2 O          22.7710   74.9285   -4.4040 O.co2   1  UNL1       -0.4371
      3 O          25.0381   73.6487   -4.0272 O.2     1  UNL1       -0.5170
      4 O          22.9957   72.5512   -5.2928 O.3     1  UNL1       -0.3112
      5 C          21.6048   72.2871   -5.3525 C.3     1  UNL1        0.1811
      6 O          20.5150   70.3658   -6.2984 O.3     1  UNL1       -0.3308
      7 O          20.6765   71.8010   -8.9261 O.3     1  UNL1       -0.3794
      8 O          18.0887   72.2227   -8.1766 O.3     1  UNL1       -0.3779
      9 C          20.4531   72.3314   -7.6207 C.3     1  UNL1        0.1713
     10 C          19.0461   72.0149   -7.1583 C.3     1  UNL1        0.1895
     11 C          21.2985   71.5308   -6.6379 C.3     1  UNL1        0.1764
     12 C          19.1668   70.5541   -6.7587 C.3     1  UNL1        0.2383
     13 H          20.1473   72.2967   -9.5712 H       1  UNL1        0.2105
     14 H          18.0491   73.1667   -8.3956 H       1  UNL1        0.2106
     15 O          16.4702   69.8132   -7.1550 O.2     1  UNL1       -0.2464
     16 O          15.7810   69.2099   -2.6381 O.2     1  UNL1       -0.2670
     17 N          18.2600   70.1981   -5.7040 N.ar    1  UNL1       -0.2551
     18 N          16.1293   69.5132   -4.9057 N.ar    1  UNL1       -0.2743
     19 C          16.9257   69.8424   -6.0099 C.ar    1  UNL1        0.3323
     20 C          18.6964   70.2035   -4.3836 C.ar    1  UNL1        0.0869
     21 C          17.9239   69.8883   -3.3418 C.ar    1  UNL1        0.0795
     22 C          16.5166   69.5050   -3.5750 C.ar    1  UNL1        0.2626
     23 H          15.1959   69.2626   -5.0946 H       1  UNL1        0.1734
     24 O          22.8196   72.9690   -2.8026 O.3     1  UNL1       -0.2703
     25 P          22.9428   71.5433   -2.0508 P.3     1  UNL1        0.2208
     26 O          24.2639   70.8866   -2.7148 O.co2   1  UNL1       -0.4371
     27 O          21.7119   70.6890   -2.1461 O.2     1  UNL1       -0.5170
     28 O          23.3852   71.9133   -0.5434 O.3     1  UNL1       -0.2858
     29 O          24.7059   70.9464    1.1705 O.3     1  UNL1       -0.3258
     30 O          21.3365   71.8659    3.3734 O.3     1  UNL1       -0.3794
     31 O          23.7315   73.4091    3.7345 O.3     1  UNL1       -0.3794
     32 O          21.0668   70.8895    0.6616 O.3     1  UNL1       -0.3775
     33 C          22.3193   72.0609    2.3529 C.3     1  UNL1        0.1715
     34 C          23.6900   72.1754    3.0228 C.3     1  UNL1        0.1694
     35 C          22.2869   70.8716    1.3948 C.3     1  UNL1        0.1967
     36 C          24.8199   72.1185    1.9859 C.3     1  UNL1        0.1761
     37 C          23.4805   70.8843    0.4381 C.3     1  UNL1        0.2704
     38 H          21.3516   72.6178    3.9848 H       1  UNL1        0.2105
     39 H          23.0127   73.4325    4.3857 H       1  UNL1        0.2105
     40 H          20.3189   70.8810    1.2784 H       1  UNL1        0.2106
     41 O          26.7593   70.7922    2.4201 O.3     1  UNL1       -0.3794
     42 C          26.1976   72.0724    2.6432 C.3     1  UNL1        0.1693
     43 H          27.6366   70.7483    2.8326 H       1  UNL1        0.2105
@<TRIPOS>UNITY_ATOM_ATTR
2 1
charge -1
26 1
charge -1
@<TRIPOS>BOND
     1    25    28    1
     2    25    24    1
     3    25    26    1
     4    25    27    2
     5     1     4    1
     6     1    24    1
     7     1     2    1
     8     1     3    2
     9     6    11    1
    10     6    12    1
    11    29    36    1
    12    29    37    1
    13     7     9    1
    14     7    13    1
    15     8    10    1
    16     8    14    1
    17    28    37    1
    18     4     5    1
    19    30    33    1
    20    30    38    1
    21    31    34    1
    22    31    39    1
    23    32    35    1
    24    32    40    1
    25    41    42    1
    26    41    43    1
    27    15    19    2
    28    16    22    2
    29    17    12    1
    30    17    19   ar
    31    17    20   ar
    32    18    19   ar
    33    18    22   ar
    34    18    23    1
    35     9    10    1
    36     9    11    1
    37    10    12    1
    38    11     5    1
    39    33    34    1
    40    33    35    1
    41    34    36    1
    42    35    37    1
    43    36    42    1
    44    20    21   ar
    45    21    22   ar
@<TRIPOS>MOLECULE
*****
 43 45 0 0 0
SMALL
GASTEIGER

@<TRIPOS>ATOM
      1 P          21.7861   72.2598   -5.8996 P.3     1  UNL1        0.2189
      2 O          20.7956   73.5356   -5.8073 O.co2   1  UNL1       -0.4371
      3 O          23.1665   72.5642   -6.4029 O.2     1  UNL1       -0.5170
      4 O          20.9467   71.1779   -6.7615 O.3     1  UNL1       -0.3112
      5 C          20.3570   71.5954   -7.9804 C.3     1  UNL1        0.1811
      6 O          18.9962   69.6935   -7.4284 O.3     1  UNL1       -0.3308
      7 O          17.9151   69.8929  -10.2181 O.3     1  UNL1       -0.3794
      8 O          15.9432   71.0508   -8.7323 O.3     1  UNL1       -0.3779
      9 C          18.2989   70.9351   -9.3226 C.3     1  UNL1        0.1713
     10 C          17.2631   71.0974   -8.2298 C.3     1  UNL1        0.1895
     11 C          19.5152   70.4566   -8.5396 C.3     1  UNL1        0.1764
     12 C          17.5827   69.9262   -7.3163 C.3     1  UNL1        0.2383
     13 H          17.1402   70.1754  -10.7296 H       1  UNL1        0.2105
     14 H          15.7888   71.8164   -9.3074 H       1  UNL1        0.2106
     15 O          16.1757   68.1560   -5.6238 O.2     1  UNL1       -0.2464
     16 O          16.4093   71.0791   -2.0682 O.2     1  UNL1       -0.2670
     17 N          17.2624   70.1990   -5.9436 N.ar    1  UNL1       -0.2551
     18 N          16.2933   69.6128   -3.8547 N.ar    1  UNL1       -0.2743
     19 C          16.5514   69.2434   -5.1809 C.ar    1  UNL1        0.3323
     20 C          17.6527   71.4028   -5.3670 C.ar    1  UNL1        0.0869
     21 C          17.3976   71.7404   -4.1012 C.ar    1  UNL1        0.0795
     22 C          16.6593   70.7979   -3.2362 C.ar    1  UNL1        0.2626
     23 H          15.7989   68.9629   -3.3043 H       1  UNL1        0.1734
     24 O          21.7347   71.6508   -4.4031 O.3     1  UNL1       -0.2703
     25 P          22.6514   71.9460   -3.1049 P.3     1  UNL1        0.2208
     26 O          24.0929   71.3422   -3.5234 O.co2   1  UNL1       -0.4371
     27 O          22.0980   71.3952   -1.8226 O.2     1  UNL1       -0.5170
     28 O          22.8629   73.5461   -3.1094 O.3     1  UNL1       -0.2858
     29 O          24.4537   74.6802   -4.4510 O.3     1  UNL1       -0.3258
     30 O          24.2096   77.3544   -1.3141 O.3     1  UNL1       -0.3794
     31 O          23.0336   78.0278   -3.8462 O.3     1  UNL1       -0.3794
     32 O          24.1248   74.5079   -0.7948 O.3     1  UNL1       -0.3775
     33 C          23.7131   76.3875   -2.2436 C.3     1  UNL1        0.1715
     34 C          23.9229   76.9304   -3.6585 C.3     1  UNL1        0.1694
     35 C          24.4726   75.0759   -2.0529 C.3     1  UNL1        0.1967
     36 C          23.6630   75.8456   -4.7124 C.3     1  UNL1        0.1761
     37 C          24.1804   74.0849   -3.1810 C.3     1  UNL1        0.2704
     38 H          23.7312   78.1894   -1.4296 H       1  UNL1        0.2105
     39 H          23.2079   78.7054   -3.1742 H       1  UNL1        0.2105
     40 H          24.3148   75.1448   -0.0890 H       1  UNL1        0.2106
     41 O          23.7684   75.2607   -7.0266 O.3     1  UNL1       -0.3794
     42 C          24.0182   76.3191   -6.1201 C.3     1  UNL1        0.1693
     43 H          23.9897   75.5477   -7.9268 H       1  UNL1        0.2105
@<TRIPOS>UNITY_ATOM_ATTR
2 1
charge -1
26 1
charge -1
@<TRIPOS>BOND
     1    25    28    1
     2    25    24    1
     3    25    26    1
     4    25    27    2
     5     1     4    1
     6     1    24    1
     7     1     2    1
     8     1     3    2
     9     6    11    1
    10     6    12    1
    11    29    36    1
    12    29    37    1
    13     7     9    1
    14     7    13    1
    15     8    10    1
    16     8    14    1
    17    28    37    1
    18     4     5    1
    19    30    33    1
    20    30    38    1
    21    31    34    1
    22    31    39    1
    23    32    35    1
    24    32    40    1
    25    41    42    1
    26    41    43    1
    27    15    19    2
    28    16    22    2
    29    17    12    1
    30    17    19   ar
    31    17    20   ar
    32    18    19   ar
    33    18    22   ar
    34    18    23    1
    35     9    10    1
    36     9    11    1
    37    10    12    1
    38    11     5    1
    39    33    34    1
    40    33    35    1
    41    34    36    1
    42    35    37    1
    43    36    42    1
    44    20    21   ar
    45    21    22   ar
@<TRIPOS>MOLECULE
*****
 43 45 0 0 0
SMALL
GASTEIGER

@<TRIPOS>ATOM
      1 P          22.2854   71.1992    0.2985 P.3     1  UNL1        0.2189
      2 O          23.7951   70.9589   -0.2310 O.co2   1  UNL1       -0.4371
      3 O          21.7193   70.0837    1.1270 O.2     1  UNL1       -0.5170
      4 O          21.4579   71.5687   -1.0419 O.3     1  UNL1       -0.3112
      5 C          21.9619   72.5870   -1.8885 C.3     1  UNL1        0.1811
      6 O          21.7005   70.7538   -3.4197 O.3     1  UNL1       -0.3308
      7 O          23.1975   72.4375   -5.3984 O.3     1  UNL1       -0.3794
      8 O          20.6065   72.7558   -6.1870 O.3     1  UNL1       -0.3779
      9 C          22.2566   72.8369   -4.4032 C.3     1  UNL1        0.1713
     10 C          20.8519   72.4616   -4.8269 C.3     1  UNL1        0.1895
     11 C          22.4659   71.9549   -3.1787 C.3     1  UNL1        0.1764
     12 C          20.8232   70.9705   -4.5369 C.3     1  UNL1        0.2383
     13 H          23.0834   72.9870   -6.1902 H       1  UNL1        0.2105
     14 H          20.6353   73.7161   -6.3205 H       1  UNL1        0.2106
     15 O          18.7714   70.4653   -6.4112 O.2     1  UNL1       -0.2464
     16 O          15.8202   69.1857   -3.1106 O.2     1  UNL1       -0.2670
     17 N          19.5090   70.5043   -4.1950 N.ar    1  UNL1       -0.2551
     18 N          17.3037   69.8284   -4.7662 N.ar    1  UNL1       -0.2743
     19 C          18.5514   70.2827   -5.2121 C.ar    1  UNL1        0.3323
     20 C          19.1809   70.2713   -2.8639 C.ar    1  UNL1        0.0869
     21 C          17.9860   69.8393   -2.4551 C.ar    1  UNL1        0.0795
     22 C          16.9290   69.5832   -3.4547 C.ar    1  UNL1        0.2626
     23 H          16.6206   69.6675   -5.4571 H       1  UNL1        0.1734
     24 O          22.3903   72.6192    1.0638 O.3     1  UNL1       -0.2703
     25 P          21.3073   73.4316    1.9470 P.3     1  UNL1        0.2208
     26 O          20.4616   72.2568    2.6696 O.co2   1  UNL1       -0.4371
     27 O          20.4735   74.4005    1.1597 O.2     1  UNL1       -0.5170
     28 O          22.1698   74.1026    3.1348 O.3     1  UNL1       -0.2858
     29 O          24.2522   73.3806    4.0059 O.3     1  UNL1       -0.3258
     30 O          22.5984   74.9370    7.4546 O.3     1  UNL1       -0.3794
     31 O          24.7331   76.3435    6.1458 O.3     1  UNL1       -0.3794
     32 O          20.9327   73.4927    5.5787 O.3     1  UNL1       -0.3775
     33 C          22.8546   74.8661    6.0493 C.3     1  UNL1        0.1715
     34 C          24.3622   75.0047    5.8290 C.3     1  UNL1        0.1694
     35 C          22.3546   73.5241    5.5179 C.3     1  UNL1        0.1967
     36 C          24.7431   74.6733    4.3798 C.3     1  UNL1        0.1761
     37 C          22.8297   73.2713    4.0859 C.3     1  UNL1        0.2704
     38 H          22.9131   75.7870    7.7982 H       1  UNL1        0.2105
     39 H          24.4867   76.5401    7.0633 H       1  UNL1        0.2105
     40 H          20.6446   73.6537    6.4903 H       1  UNL1        0.2106
     41 O          26.5227   74.5612    2.7894 O.3     1  UNL1       -0.3794
     42 C          26.2565   74.6515    4.1769 C.3     1  UNL1        0.1693
     43 H          27.4822   74.5468    2.6451 H       1  UNL1        0.2105
@<TRIPOS>UNITY_ATOM_ATTR
2 1
charge -1
26 1
charge -1
@<TRIPOS>BOND
     1    25    28    1
     2    25    24    1
     3    25    26    1
     4    25    27    2
     5     1     4    1
     6     1    24    1
     7     1     2    1
     8     1     3    2
     9     6    11    1
    10     6    12    1
    11    29    36    1
    12    29    37    1
    13     7     9    1
    14     7    13    1
    15     8    10    1
    16     8    14    1
    17    28    37    1
    18     4     5    1
    19    30    33    1
    20    30    38    1
    21    31    34    1
    22    31    39    1
    23    32    35    1
    24    32    40    1
    25    41    42    1
    26    41    43    1
    27    15    19    2
    28    16    22    2
    29    17    12    1
    30    17    19   ar
    31    17    20   ar
    32    18    19   ar
    33    18    22   ar
    34    18    23    1
    35     9    10    1
    36     9    11    1
    37    10    12    1
    38    11     5    1
    39    33    34    1
    40    33    35    1
    41    34    36    1
    42    35    37    1
    43    36    42    1
    44    20    21   ar
    45    21    22   ar
@<TRIPOS>MOLECULE
*****
 43 45 0 0 0
SMALL
GASTEIGER

@<TRIPOS>ATOM
      1 P          21.3474   72.6295   -1.9715 P.3     1  UNL1        0.2189
      2 O          21.3715   74.1023   -2.6406 O.co2   1  UNL1       -0.4371
      3 O          22.4249   71.6997   -2.4469 O.2     1  UNL1       -0.5170
      4 O          19.8287   72.1222   -2.2037 O.3     1  UNL1       -0.3112
      5 C          19.4265   71.7706   -3.5161 C.3     1  UNL1        0.1811
      6 O          17.5639   72.2309   -4.9627 O.3     1  UNL1       -0.3308
      7 O          15.8762   70.8100   -2.9320 O.3     1  UNL1       -0.3794
      8 O          16.2076   68.9122   -4.8621 O.3     1  UNL1       -0.3779
      9 C          17.2112   70.5304   -3.3503 C.3     1  UNL1        0.1713
     10 C          17.2096   69.8994   -4.7270 C.3     1  UNL1        0.1895
     11 C          17.9095   71.8594   -3.6103 C.3     1  UNL1        0.1764
     12 C          16.9705   71.1018   -5.6244 C.3     1  UNL1        0.2383
     13 H          15.4103   69.9762   -2.7596 H       1  UNL1        0.2105
     14 H          16.4045   68.1685   -4.2714 H       1  UNL1        0.2106
     15 O          15.5860   70.2819   -7.9458 O.2     1  UNL1       -0.2464
     16 O          19.3919   70.5478  -10.5314 O.2     1  UNL1       -0.2670
     17 N          17.5749   70.9487   -6.9177 N.ar    1  UNL1       -0.2551
     18 N          17.4821   70.4151   -9.2314 N.ar    1  UNL1       -0.2743
     19 C          16.7912   70.5308   -8.0185 C.ar    1  UNL1        0.3323
     20 C          18.9300   71.2122   -7.0849 C.ar    1  UNL1        0.0869
     21 C          19.5742   71.0958   -8.2480 C.ar    1  UNL1        0.0795
     22 C          18.8282   70.6644   -9.4477 C.ar    1  UNL1        0.2626
     23 H          16.9566   70.1251  -10.0121 H       1  UNL1        0.1734
     24 O          21.3855   72.9493   -0.3874 O.3     1  UNL1       -0.2703
     25 P          21.2154   71.9807    0.8955 P.3     1  UNL1        0.2208
     26 O          21.0242   70.5172    0.2327 O.co2   1  UNL1       -0.4371
     27 O          20.1130   72.3858    1.8306 O.2     1  UNL1       -0.5170
     28 O          22.6812   71.9345    1.5696 O.3     1  UNL1       -0.2858
     29 O          24.2919   73.4116    0.6531 O.3     1  UNL1       -0.3258
     30 O          26.8146   70.9017    2.7476 O.3     1  UNL1       -0.3794
     31 O          26.3427   73.5653    3.7124 O.3     1  UNL1       -0.3794
     32 O          24.5097   69.8147    1.3746 O.3     1  UNL1       -0.3775
     33 C          25.6097   71.6336    2.5073 C.3     1  UNL1        0.1715
     34 C          25.9617   73.1196    2.4138 C.3     1  UNL1        0.1694
     35 C          24.9817   71.1467    1.2027 C.3     1  UNL1        0.1967
     36 C          24.7724   73.9391    1.8951 C.3     1  UNL1        0.1761
     37 C          23.8405   72.0593    0.7501 C.3     1  UNL1        0.2704
     38 H          27.2182   71.2057    3.5748 H       1  UNL1        0.2105
     39 H          27.0942   73.0394    4.0285 H       1  UNL1        0.2105
     40 H          25.2415   69.2469    1.6608 H       1  UNL1        0.2106
     41 O          25.1483   75.6283    0.2477 O.3     1  UNL1       -0.3794
     42 C          25.1488   75.3977    1.6445 C.3     1  UNL1        0.1693
     43 H          25.3858   76.5529    0.0731 H       1  UNL1        0.2105
@<TRIPOS>UNITY_ATOM_ATTR
2 1
charge -1
26 1
charge -1
@<TRIPOS>BOND
     1    25    28    1
     2    25    24    1
     3    25    26    1
     4    25    27    2
     5     1     4    1
     6     1    24    1
     7     1     2    1
     8     1     3    2
     9     6    11    1
    10     6    12    1
    11    29    36    1
    12    29    37    1
    13     7     9    1
    14     7    13    1
    15     8    10    1
    16     8    14    1
    17    28    37    1
    18     4     5    1
    19    30    33    1
    20    30    38    1
    21    31    34    1
    22    31    39    1
    23    32    35    1
    24    32    40    1
    25    41    42    1
    26    41    43    1
    27    15    19    2
    28    16    22    2
    29    17    12    1
    30    17    19   ar
    31    17    20   ar
    32    18    19   ar
    33    18    22   ar
    34    18    23    1
    35     9    10    1
    36     9    11    1
    37    10    12    1
    38    11     5    1
    39    33    34    1
    40    33    35    1
    41    34    36    1
    42    35    37    1
    43    36    42    1
    44    20    21   ar
    45    21    22   ar
@<TRIPOS>MOLECULE
*****
 43 45 0 0 0
SMALL
GASTEIGER

@<TRIPOS>ATOM
      1 P          23.3548   73.7328   -3.8415 P.3     1  UNL1        0.2189
      2 O          22.9502   75.2354   -3.3990 O.co2   1  UNL1       -0.4371
      3 O          24.8302   73.4712   -3.9212 O.2     1  UNL1       -0.5170
      4 O          22.5239   73.4935   -5.2090 O.3     1  UNL1       -0.3112
      5 C          21.3000   72.7826   -5.1410 C.3     1  UNL1        0.1811
      6 O          20.5167   70.6617   -5.9545 O.3     1  UNL1       -0.3308
      7 O          20.7159   71.8522   -8.6993 O.3     1  UNL1       -0.3794
      8 O          18.0461   72.0219   -8.1702 O.3     1  UNL1       -0.3779
      9 C          20.3315   72.4716   -7.4730 C.3     1  UNL1        0.1713
     10 C          18.9387   72.0298   -7.0748 C.3     1  UNL1        0.1895
     11 C          21.1844   71.8769   -6.3593 C.3     1  UNL1        0.1764
     12 C          19.1958   70.6391   -6.5200 C.3     1  UNL1        0.2383
     13 H          20.1850   72.2162   -9.4256 H       1  UNL1        0.2105
     14 H          17.9149   72.9291   -8.4872 H       1  UNL1        0.2106
     15 O          16.6072   69.6246   -7.0175 O.2     1  UNL1       -0.2464
     16 O          15.6786   69.2791   -2.5164 O.2     1  UNL1       -0.2670
     17 N          18.2567   70.2753   -5.4967 N.ar    1  UNL1       -0.2551
     18 N          16.1470   69.4532   -4.7759 N.ar    1  UNL1       -0.2743
     19 C          16.9821   69.7765   -5.8530 C.ar    1  UNL1        0.3323
     20 C          18.6031   70.4142   -4.1571 C.ar    1  UNL1        0.0869
     21 C          17.7947   70.1026   -3.1419 C.ar    1  UNL1        0.0795
     22 C          16.4451   69.5747   -3.4279 C.ar    1  UNL1        0.2626
     23 H          15.2538   69.1041   -5.0000 H       1  UNL1        0.1734
     24 O          22.5655   72.8137   -2.7713 O.3     1  UNL1       -0.2703
     25 P          22.7763   71.2710   -2.3373 P.3     1  UNL1        0.2208
     26 O          24.1743   70.8733   -3.0480 O.co2   1  UNL1       -0.4371
     27 O          21.6264   70.3710   -2.6860 O.2     1  UNL1       -0.5170
     28 O          23.1231   71.3334   -0.7622 O.3     1  UNL1       -0.2858
     29 O          22.0821   73.3639   -0.1220 O.3     1  UNL1       -0.3258
     30 O          23.2837   72.0366    3.5990 O.3     1  UNL1       -0.3794
     31 O          20.5001   71.9588    2.8966 O.3     1  UNL1       -0.3794
     32 O          24.9997   71.6413    1.3014 O.3     1  UNL1       -0.3775
     33 C          22.8045   71.8986    2.2586 C.3     1  UNL1        0.1715
     34 C          21.4831   72.6608    2.1409 C.3     1  UNL1        0.1694
     35 C          23.8430   72.4711    1.2957 C.3     1  UNL1        0.1967
     36 C          21.0433   72.7841    0.6758 C.3     1  UNL1        0.1761
     37 C          23.2879   72.5971   -0.1242 C.3     1  UNL1        0.2704
     38 H          22.6292   71.6746    4.2153 H       1  UNL1        0.2105
     39 H          20.7902   71.8875    3.8196 H       1  UNL1        0.2105
     40 H          25.3417   71.5698    2.2057 H       1  UNL1        0.2106
     41 O          19.6542   74.4324    1.7065 O.3     1  UNL1       -0.3794
     42 C          19.8124   73.6746    0.5211 C.3     1  UNL1        0.1693
     43 H          18.8746   75.0041    1.6224 H       1  UNL1        0.2105
@<TRIPOS>UNITY_ATOM_ATTR
2 1
charge -1
26 1
charge -1
@<TRIPOS>BOND
     1    25    28    1
     2    25    24    1
     3    25    26    1
     4    25    27    2
     5     1     4    1
     6     1    24    1
     7     1     2    1
     8     1     3    2
     9     6    11    1
    10     6    12    1
    11    29    36    1
    12    29    37    1
    13     7     9    1
    14     7    13    1
    15     8    10    1
    16     8    14    1
    17    28    37    1
    18     4     5    1
    19    30    33    1
    20    30    38    1
    21    31    34    1
    22    31    39    1
    23    32    35    1
    24    32    40    1
    25    41    42    1
    26    41    43    1
    27    15    19    2
    28    16    22    2
    29    17    12    1
    30    17    19   ar
    31    17    20   ar
    32    18    19   ar
    33    18    22   ar
    34    18    23    1
    35     9    10    1
    36     9    11    1
    37    10    12    1
    38    11     5    1
    39    33    34    1
    40    33    35    1
    41    34    36    1
    42    35    37    1
    43    36    42    1
    44    20    21   ar
    45    21    22   ar
@<TRIPOS>MOLECULE
*****
 43 45 0 0 0
SMALL
GASTEIGER

@<TRIPOS>ATOM
      1 P          23.2636   72.3797   -3.5914 P.3     1  UNL1        0.2189
      2 O          24.0395   70.9808   -3.3494 O.co2   1  UNL1       -0.4371
      3 O          24.1148   73.4914   -4.1309 O.2     1  UNL1       -0.5170
      4 O          22.5403   72.6729   -2.1742 O.3     1  UNL1       -0.3112
      5 C          23.3425   72.7499   -1.0088 C.3     1  UNL1        0.1811
      6 O          24.3776   71.2579    0.5649 O.3     1  UNL1       -0.3308
      7 O          21.6210   70.2030    1.0932 O.3     1  UNL1       -0.3794
      8 O          22.0399   71.8615    3.2170 O.3     1  UNL1       -0.3779
      9 C          22.0369   71.5374    0.8074 C.3     1  UNL1        0.1713
     10 C          22.7240   72.1437    2.0132 C.3     1  UNL1        0.1895
     11 C          23.1736   71.4680   -0.2049 C.3     1  UNL1        0.1764
     12 C          24.0958   71.4936    1.9541 C.3     1  UNL1        0.2383
     13 H          20.8953   70.2217    1.7374 H       1  UNL1        0.2105
     14 H          21.1733   72.2969    3.2063 H       1  UNL1        0.2106
     15 O          26.7589   70.6674    2.4053 O.2     1  UNL1       -0.2464
     16 O          27.9530   74.7983    4.0639 O.2     1  UNL1       -0.2670
     17 N          25.1237   72.3328    2.5025 N.ar    1  UNL1       -0.2551
     18 N          27.3513   72.7250    3.2306 N.ar    1  UNL1       -0.2743
     19 C          26.4286   71.8204    2.6899 C.ar    1  UNL1        0.3323
     20 C          24.8334   73.6483    2.8478 C.ar    1  UNL1        0.0869
     21 C          25.7243   74.4976    3.3636 C.ar    1  UNL1        0.0795
     22 C          27.1107   74.0413    3.5911 C.ar    1  UNL1        0.2626
     23 H          28.2667   72.3900    3.3705 H       1  UNL1        0.1734
     24 O          22.0317   71.9515   -4.5464 O.3     1  UNL1       -0.2703
     25 P          20.4883   72.4316   -4.5675 P.3     1  UNL1        0.2208
     26 O          20.5979   74.0396   -4.4274 O.co2   1  UNL1       -0.4371
     27 O          19.6260   71.7767   -3.5276 O.2     1  UNL1       -0.5170
     28 O          20.0051   72.1868   -6.0879 O.3     1  UNL1       -0.2858
     29 O          19.1013   69.9987   -6.1972 O.3     1  UNL1       -0.3258
     30 O          18.7688   71.0494  -10.1767 O.3     1  UNL1       -0.3794
     31 O          16.4080   70.8967   -8.5484 O.3     1  UNL1       -0.3794
     32 O          21.0913   71.8696   -8.6559 O.3     1  UNL1       -0.3775
     33 C          18.7598   71.2749   -8.7644 C.3     1  UNL1        0.1715
     34 C          17.6768   70.3898   -8.1443 C.3     1  UNL1        0.1694
     35 C          20.1328   70.9239   -8.1942 C.3     1  UNL1        0.1967
     36 C          17.7833   70.3744   -6.6135 C.3     1  UNL1        0.1761
     37 C          20.1170   70.8884   -6.6649 C.3     1  UNL1        0.2704
     38 H          17.9000   71.2709  -10.5450 H       1  UNL1        0.2105
     39 H          16.3539   70.9016   -9.5170 H       1  UNL1        0.2105
     40 H          21.0918   71.8823   -9.6253 H       1  UNL1        0.2106
     41 O          16.0526   70.0502   -4.9984 O.3     1  UNL1       -0.3794
     42 C          16.8148   69.3762   -5.9828 C.3     1  UNL1        0.1693
     43 H          15.4315   69.4272   -4.5887 H       1  UNL1        0.2105
@<TRIPOS>UNITY_ATOM_ATTR
2 1
charge -1
26 1
charge -1
@<TRIPOS>BOND
     1    25    28    1
     2    25    24    1
     3    25    26    1
     4    25    27    2
     5     1     4    1
     6     1    24    1
     7     1     2    1
     8     1     3    2
     9     6    11    1
    10     6    12    1
    11    29    36    1
    12    29    37    1
    13     7     9    1
    14     7    13    1
    15     8    10    1
    16     8    14    1
    17    28    37    1
    18     4     5    1
    19    30    33    1
    20    30    38    1
    21    31    34    1
    22    31    39    1
    23    32    35    1
    24    32    40    1
    25    41    42    1
    26    41    43    1
    27    15    19    2
    28    16    22    2
    29    17    12    1
    30    17    19   ar
    31    17    20   ar
    32    18    19   ar
    33    18    22   ar
    34    18    23    1
    35     9    10    1
    36     9    11    1
    37    10    12    1
    38    11     5    1
    39    33    34    1
    40    33    35    1
    41    34    36    1
    42    35    37    1
    43    36    42    1
    44    20    21   ar
    45    21    22   ar
@<TRIPOS>MOLECULE
*****
 43 45 0 0 0
SMALL
GASTEIGER

@<TRIPOS>ATOM
      1 P          22.8290   73.6787   -4.9993 P.3     1  UNL1        0.2189
      2 O          24.0087   72.7714   -4.3651 O.co2   1  UNL1       -0.4371
      3 O          23.0358   74.0768   -6.4311 O.2     1  UNL1       -0.5170
      4 O          22.6682   74.8975   -3.9474 O.3     1  UNL1       -0.3112
      5 C          22.8717   74.6333   -2.5702 C.3     1  UNL1        0.1811
      6 O          21.5326   73.1844   -1.1985 O.3     1  UNL1       -0.3308
      7 O          19.8100   75.5820   -0.6742 O.3     1  UNL1       -0.3794
      8 O          21.3222   75.4300    1.5900 O.3     1  UNL1       -0.3779
      9 C          21.2252   75.5064   -0.8382 C.3     1  UNL1        0.1713
     10 C          21.8661   74.9060    0.3957 C.3     1  UNL1        0.1895
     11 C          21.5192   74.4495   -1.8955 C.3     1  UNL1        0.1764
     12 C          21.5685   73.4269    0.2174 C.3     1  UNL1        0.2383
     13 H          19.5977   76.2509   -0.0038 H       1  UNL1        0.2105
     14 H          21.5385   76.3731    1.6575 H       1  UNL1        0.2106
     15 O          21.2238   70.6850    0.8013 O.2     1  UNL1       -0.2464
     16 O          25.4980   70.3185    2.4858 O.2     1  UNL1       -0.2670
     17 N          22.5749   72.5907    0.8084 N.ar    1  UNL1       -0.2551
     18 N          23.3523   70.5047    1.6394 N.ar    1  UNL1       -0.2743
     19 C          22.3002   71.2265    1.0616 C.ar    1  UNL1        0.3323
     20 C          23.8181   73.1244    1.1301 C.ar    1  UNL1        0.0869
     21 C          24.8104   72.4229    1.6818 C.ar    1  UNL1        0.0795
     22 C          24.6052   70.9904    1.9787 C.ar    1  UNL1        0.2626
     23 H          23.1837   69.5524    1.8252 H       1  UNL1        0.1734
     24 O          21.5045   72.7913   -4.7324 O.3     1  UNL1       -0.2703
     25 P          19.9413   73.1139   -4.9877 P.3     1  UNL1        0.2208
     26 O          19.9140   74.7250   -5.1338 O.co2   1  UNL1       -0.4371
     27 O          19.0208   72.5721   -3.9327 O.2     1  UNL1       -0.5170
     28 O          19.6487   72.5646   -6.4769 O.3     1  UNL1       -0.2858
     29 O          18.8354   70.3709   -6.0988 O.3     1  UNL1       -0.3258
     30 O          18.4303   70.5262  -10.2052 O.3     1  UNL1       -0.3794
     31 O          16.0899   70.6363   -8.5443 O.3     1  UNL1       -0.3794
     32 O          20.7281   71.7441   -8.9339 O.3     1  UNL1       -0.3775
     33 C          18.4224   71.0500   -8.8744 C.3     1  UNL1        0.1715
     34 C          17.3816   70.2779   -8.0613 C.3     1  UNL1        0.1694
     35 C          19.8129   70.8835   -8.2643 C.3     1  UNL1        0.1967
     36 C          17.4999   70.5967   -6.5648 C.3     1  UNL1        0.1761
     37 C          19.8099   71.1777   -6.7631 C.3     1  UNL1        0.2704
     38 H          17.5504   70.6292  -10.5985 H       1  UNL1        0.2105
     39 H          16.0285   70.4303   -9.4904 H       1  UNL1        0.2105
     40 H          20.7209   71.5477   -9.8832 H       1  UNL1        0.2106
     41 O          15.6117   69.1326   -6.5697 O.3     1  UNL1       -0.3794
     42 C          16.5782   69.7209   -5.7188 C.3     1  UNL1        0.1693
     43 H          15.0183   68.5721   -6.0450 H       1  UNL1        0.2105
@<TRIPOS>UNITY_ATOM_ATTR
2 1
charge -1
26 1
charge -1
@<TRIPOS>BOND
     1    25    28    1
     2    25    24    1
     3    25    26    1
     4    25    27    2
     5     1     4    1
     6     1    24    1
     7     1     2    1
     8     1     3    2
     9     6    11    1
    10     6    12    1
    11    29    36    1
    12    29    37    1
    13     7     9    1
    14     7    13    1
    15     8    10    1
    16     8    14    1
    17    28    37    1
    18     4     5    1
    19    30    33    1
    20    30    38    1
    21    31    34    1
    22    31    39    1
    23    32    35    1
    24    32    40    1
    25    41    42    1
    26    41    43    1
    27    15    19    2
    28    16    22    2
    29    17    12    1
    30    17    19   ar
    31    17    20   ar
    32    18    19   ar
    33    18    22   ar
    34    18    23    1
    35     9    10    1
    36     9    11    1
    37    10    12    1
    38    11     5    1
    39    33    34    1
    40    33    35    1
    41    34    36    1
    42    35    37    1
    43    36    42    1
    44    20    21   ar
    45    21    22   ar
@<TRIPOS>MOLECULE
*****
 43 45 0 0 0
SMALL
GASTEIGER

@<TRIPOS>ATOM
      1 P          22.2339   72.1826   -2.8623 P.3     1  UNL1        0.2189
      2 O          23.5787   71.4531   -3.3881 O.co2   1  UNL1       -0.4371
      3 O          22.3902   73.6378   -2.5314 O.2     1  UNL1       -0.5170
      4 O          21.7272   71.2371   -1.6511 O.3     1  UNL1       -0.3112
      5 C          22.6156   70.9791   -0.5777 C.3     1  UNL1        0.1811
      6 O          22.7995   70.9279    1.8175 O.3     1  UNL1       -0.3308
      7 O          20.4287   72.7634    1.8518 O.3     1  UNL1       -0.3794
      8 O          22.5107   74.4738    2.2717 O.3     1  UNL1       -0.3779
      9 C          21.5145   72.7093    0.9280 C.3     1  UNL1        0.1713
     10 C          22.7678   73.2831    1.5555 C.3     1  UNL1        0.1895
     11 C          21.8956   71.2466    0.7369 C.3     1  UNL1        0.1764
     12 C          23.2189   72.1453    2.4554 C.3     1  UNL1        0.2383
     13 H          20.1674   73.6879    1.9896 H       1  UNL1        0.2105
     14 H          22.2270   75.1671    1.6556 H       1  UNL1        0.2106
     15 O          24.8375   69.8835    1.9630 O.2     1  UNL1       -0.2464
     16 O          28.6749   72.1436    3.1494 O.2     1  UNL1       -0.2670
     17 N          24.6441   72.1148    2.6270 N.ar    1  UNL1       -0.2551
     18 N          26.7469   71.0107    2.5540 N.ar    1  UNL1       -0.2743
     19 C          25.3632   70.9281    2.3532 C.ar    1  UNL1        0.3323
     20 C          25.3142   73.2531    3.0620 C.ar    1  UNL1        0.0869
     21 C          26.6341   73.3151    3.2497 C.ar    1  UNL1        0.0795
     22 C          27.4590   72.1184    2.9862 C.ar    1  UNL1        0.2626
     23 H          27.2684   70.1959    2.3699 H       1  UNL1        0.1734
     24 O          21.1681   71.8706   -4.0370 O.3     1  UNL1       -0.2703
     25 P          19.6630   72.4097   -4.2754 P.3     1  UNL1        0.2208
     26 O          19.8105   74.0114   -4.1011 O.co2   1  UNL1       -0.4371
     27 O          18.6352   71.7814   -3.3794 O.2     1  UNL1       -0.5170
     28 O          19.3968   72.1941   -5.8526 O.3     1  UNL1       -0.2858
     29 O          18.7169   69.9352   -6.0800 O.3     1  UNL1       -0.3258
     30 O          18.5719   71.0704  -10.0475 O.3     1  UNL1       -0.3794
     31 O          16.1257   70.6477   -8.6033 O.3     1  UNL1       -0.3794
     32 O          20.6900   72.0582   -8.3395 O.3     1  UNL1       -0.3775
     33 C          18.4400   71.2511   -8.6349 C.3     1  UNL1        0.1715
     34 C          17.4050   70.2499   -8.1180 C.3     1  UNL1        0.1694
     35 C          19.7957   71.0132   -7.9725 C.3     1  UNL1        0.1967
     36 C          17.4022   70.1981   -6.5842 C.3     1  UNL1        0.1761
     37 C          19.6736   70.9300   -6.4499 C.3     1  UNL1        0.2704
     38 H          17.7146   71.2205  -10.4742 H       1  UNL1        0.2105
     39 H          16.1412   70.6768   -9.5729 H       1  UNL1        0.2105
     40 H          20.7589   72.1003   -9.3056 H       1  UNL1        0.2106
     41 O          16.9000   68.7713   -4.7347 O.3     1  UNL1       -0.3794
     42 C          16.4910   69.0948   -6.0509 C.3     1  UNL1        0.1693
     43 H          16.3287   68.0705   -4.3823 H       1  UNL1        0.2105
@<TRIPOS>UNITY_ATOM_ATTR
2 1
charge -1
26 1
charge -1
@<TRIPOS>BOND
     1    25    28    1
     2    25    24    1
     3    25    26    1
     4    25    27    2
     5     1     4    1
     6     1    24    1
     7     1     2    1
     8     1     3    2
     9     6    11    1
    10     6    12    1
    11    29    36    1
    12    29    37    1
    13     7     9    1
    14     7    13    1
    15     8    10    1
    16     8    14    1
    17    28    37    1
    18     4     5    1
    19    30    33    1
    20    30    38    1
    21    31    34    1
    22    31    39    1
    23    32    35    1
    24    32    40    1
    25    41    42    1
    26    41    43    1
    27    15    19    2
    28    16    22    2
    29    17    12    1
    30    17    19   ar
    31    17    20   ar
    32    18    19   ar
    33    18    22   ar
    34    18    23    1
    35     9    10    1
    36     9    11    1
    37    10    12    1
    38    11     5    1
    39    33    34    1
    40    33    35    1
    41    34    36    1
    42    35    37    1
    43    36    42    1
    44    20    21   ar
    45    21    22   ar
@<TRIPOS>MOLECULE
*****
 43 45 0 0 0
SMALL
GASTEIGER

@<TRIPOS>ATOM
      1 P          22.5226   71.6831   -2.9602 P.3     1  UNL1        0.2189
      2 O          24.0051   71.5368   -3.5915 O.co2   1  UNL1       -0.4371
      3 O          22.3650   71.1243   -1.5767 O.2     1  UNL1       -0.5170
      4 O          21.5549   71.0463   -4.0898 O.3     1  UNL1       -0.3112
      5 C          20.6435   70.0317   -3.7054 C.3     1  UNL1        0.1811
      6 O          18.9104   71.4033   -4.6482 O.3     1  UNL1       -0.3308
      7 O          17.1147   70.2588   -2.5372 O.3     1  UNL1       -0.3794
      8 O          16.4265   68.8182   -4.7480 O.3     1  UNL1       -0.3779
      9 C          18.1708   69.6298   -3.2614 C.3     1  UNL1        0.1713
     10 C          17.7361   69.3451   -4.6839 C.3     1  UNL1        0.1895
     11 C          19.2764   70.6579   -3.4664 C.3     1  UNL1        0.1764
     12 C          17.8465   70.7168   -5.3277 C.3     1  UNL1        0.2383
     13 H          16.3969   69.6215   -2.3938 H       1  UNL1        0.2105
     14 H          16.4080   67.9452   -4.3256 H       1  UNL1        0.2106
     15 O          15.9249   70.4387   -7.3790 O.2     1  UNL1       -0.2464
     16 O          19.1606   70.4371  -10.6610 O.2     1  UNL1       -0.2670
     17 N          18.1589   70.6415   -6.7270 N.ar    1  UNL1       -0.2551
     18 N          17.5375   70.4383   -9.0115 N.ar    1  UNL1       -0.2743
     19 C          17.1197   70.5013   -7.6761 C.ar    1  UNL1        0.3323
     20 C          19.4833   70.7071   -7.1459 C.ar    1  UNL1        0.0869
     21 C          19.8653   70.6443   -8.4231 C.ar    1  UNL1        0.0795
     22 C          18.8413   70.4978   -9.4777 C.ar    1  UNL1        0.2626
     23 H          16.8309   70.3402   -9.6903 H       1  UNL1        0.1734
     24 O          22.2302   73.2682   -3.0829 O.3     1  UNL1       -0.2703
     25 P          22.9638   74.5386   -2.4041 P.3     1  UNL1        0.2208
     26 O          23.7505   73.8863   -1.1498 O.co2   1  UNL1       -0.4371
     27 O          22.0367   75.6611   -2.0376 O.2     1  UNL1       -0.5170
     28 O          24.1261   74.9448   -3.4477 O.3     1  UNL1       -0.2858
     29 O          23.5417   74.9371   -5.7444 O.3     1  UNL1       -0.3258
     30 O          20.2501   76.9199   -4.2326 O.3     1  UNL1       -0.3794
     31 O          19.9763   74.2125   -5.1508 O.3     1  UNL1       -0.3794
     32 O          22.8782   77.4388   -3.1354 O.3     1  UNL1       -0.3775
     33 C          21.3140   75.9641   -4.2216 C.3     1  UNL1        0.1715
     34 C          21.1220   75.0192   -5.4095 C.3     1  UNL1        0.1694
     35 C          22.6478   76.7006   -4.3306 C.3     1  UNL1        0.1967
     36 C          22.3598   74.1372   -5.6215 C.3     1  UNL1        0.1761
     37 C          23.8063   75.7357   -4.5894 C.3     1  UNL1        0.2704
     38 H          19.4004   76.4587   -4.1632 H       1  UNL1        0.2105
     39 H          19.2019   74.7816   -5.0184 H       1  UNL1        0.2105
     40 H          22.1380   78.0462   -2.9829 H       1  UNL1        0.2106
     41 O          21.2056   73.8210   -7.6896 O.3     1  UNL1       -0.3794
     42 C          22.2540   73.2994   -6.8939 C.3     1  UNL1        0.1693
     43 H          21.1268   73.2978   -8.5030 H       1  UNL1        0.2105
@<TRIPOS>UNITY_ATOM_ATTR
2 1
charge -1
26 1
charge -1
@<TRIPOS>BOND
     1    25    28    1
     2    25    24    1
     3    25    26    1
     4    25    27    2
     5     1     4    1
     6     1    24    1
     7     1     2    1
     8     1     3    2
     9     6    11    1
    10     6    12    1
    11    29    36    1
    12    29    37    1
    13     7     9    1
    14     7    13    1
    15     8    10    1
    16     8    14    1
    17    28    37    1
    18     4     5    1
    19    30    33    1
    20    30    38    1
    21    31    34    1
    22    31    39    1
    23    32    35    1
    24    32    40    1
    25    41    42    1
    26    41    43    1
    27    15    19    2
    28    16    22    2
    29    17    12    1
    30    17    19   ar
    31    17    20   ar
    32    18    19   ar
    33    18    22   ar
    34    18    23    1
    35     9    10    1
    36     9    11    1
    37    10    12    1
    38    11     5    1
    39    33    34    1
    40    33    35    1
    41    34    36    1
    42    35    37    1
    43    36    42    1
    44    20    21   ar
    45    21    22   ar
@<TRIPOS>MOLECULE
*****
 43 45 0 0 0
SMALL
GASTEIGER

@<TRIPOS>ATOM
      1 P          20.1108   73.0861   -5.0376 P.3     1  UNL1        0.2189
      2 O          19.4326   72.4148   -3.7312 O.co2   1  UNL1       -0.4371
      3 O          19.3690   74.2610   -5.6039 O.2     1  UNL1       -0.5170
      4 O          20.3279   71.8397   -6.0463 O.3     1  UNL1       -0.3112
      5 C          19.9968   72.0106   -7.4134 C.3     1  UNL1        0.1811
      6 O          18.7312   70.0526   -6.8321 O.3     1  UNL1       -0.3308
      7 O          18.1633   69.7781   -9.7635 O.3     1  UNL1       -0.3794
      8 O          15.8594   70.8849   -8.8128 O.3     1  UNL1       -0.3779
      9 C          18.2842   70.9608   -8.9747 C.3     1  UNL1        0.1713
     10 C          17.0563   71.1418   -8.1069 C.3     1  UNL1        0.1895
     11 C          19.3747   70.7236   -7.9375 C.3     1  UNL1        0.1764
     12 C          17.3060   70.1376   -6.9944 C.3     1  UNL1        0.2383
     13 H          17.4728   69.9057  -10.4334 H       1  UNL1        0.2105
     14 H          15.7456   71.5502   -9.5093 H       1  UNL1        0.2106
     15 O          16.6806   68.3758   -4.8772 O.2     1  UNL1       -0.2464
     16 O          15.0517   71.8038   -2.2625 O.2     1  UNL1       -0.2670
     17 N          16.7181   70.5428   -5.7488 N.ar    1  UNL1       -0.2551
     18 N          15.8702   70.0842   -3.5769 N.ar    1  UNL1       -0.2743
     19 C          16.4427   69.5788   -4.7512 C.ar    1  UNL1        0.3323
     20 C          16.4211   71.8830   -5.5262 C.ar    1  UNL1        0.0869
     21 C          15.8740   72.3485   -4.4013 C.ar    1  UNL1        0.0795
     22 C          15.5552   71.4069   -3.3088 C.ar    1  UNL1        0.2626
     23 H          15.6693   69.4308   -2.8680 H       1  UNL1        0.1734
     24 O          21.6127   73.4156   -4.5388 O.3     1  UNL1       -0.2703
     25 P          22.6991   72.5016   -3.7661 P.3     1  UNL1        0.2208
     26 O          23.9998   72.5808   -4.7250 O.co2   1  UNL1       -0.4371
     27 O          22.2310   71.1058   -3.4716 O.2     1  UNL1       -0.5170
     28 O          23.1019   73.3613   -2.4609 O.3     1  UNL1       -0.2858
     29 O          21.2596   73.0703   -0.9988 O.3     1  UNL1       -0.3258
     30 O          23.6685   75.3851    1.4280 O.3     1  UNL1       -0.3794
     31 O          23.3309   72.5937    2.0131 O.3     1  UNL1       -0.3794
     32 O          23.5325   75.9284   -1.4120 O.3     1  UNL1       -0.3775
     33 C          23.3865   74.3926    0.4377 C.3     1  UNL1        0.1715
     34 C          22.5226   73.3057    1.0804 C.3     1  UNL1        0.1694
     35 C          22.6481   75.0468   -0.7285 C.3     1  UNL1        0.1967
     36 C          21.9586   72.3483    0.0219 C.3     1  UNL1        0.1761
     37 C          22.0853   74.0046   -1.6967 C.3     1  UNL1        0.2704
     38 H          24.1378   74.9763    2.1711 H       1  UNL1        0.2105
     39 H          23.6812   73.2098    2.6756 H       1  UNL1        0.2105
     40 H          23.8817   76.5834   -0.7885 H       1  UNL1        0.2106
     41 O          21.6891   70.2235    1.0810 O.3     1  UNL1       -0.3794
     42 C          20.9685   71.3521    0.6214 C.3     1  UNL1        0.1693
     43 H          21.0717   69.5810    1.4655 H       1  UNL1        0.2105
@<TRIPOS>UNITY_ATOM_ATTR
2 1
charge -1
26 1
charge -1
@<TRIPOS>BOND
     1    25    28    1
     2    25    24    1
     3    25    26    1
     4    25    27    2
     5     1     4    1
     6     1    24    1
     7     1     2    1
     8     1     3    2
     9     6    11    1
    10     6    12    1
    11    29    36    1
    12    29    37    1
    13     7     9    1
    14     7    13    1
    15     8    10    1
    16     8    14    1
    17    28    37    1
    18     4     5    1
    19    30    33    1
    20    30    38    1
    21    31    34    1
    22    31    39    1
    23    32    35    1
    24    32    40    1
    25    41    42    1
    26    41    43    1
    27    15    19    2
    28    16    22    2
    29    17    12    1
    30    17    19   ar
    31    17    20   ar
    32    18    19   ar
    33    18    22   ar
    34    18    23    1
    35     9    10    1
    36     9    11    1
    37    10    12    1
    38    11     5    1
    39    33    34    1
    40    33    35    1
    41    34    36    1
    42    35    37    1
    43    36    42    1
    44    20    21   ar
    45    21    22   ar
@<TRIPOS>MOLECULE
*****
 43 45 0 0 0
SMALL
GASTEIGER

@<TRIPOS>ATOM
      1 P          22.7887   73.2679   -4.1717 P.3     1  UNL1        0.2189
      2 O          24.1380   72.3796   -4.2589 O.co2   1  UNL1       -0.4371
      3 O          23.0035   74.7524   -4.2103 O.2     1  UNL1       -0.5170
      4 O          22.0348   72.7010   -2.8570 O.3     1  UNL1       -0.3112
      5 C          21.4154   71.4286   -2.9288 C.3     1  UNL1        0.1811
      6 O          20.7344   70.6706   -0.7526 O.3     1  UNL1       -0.3308
      7 O          18.4902   72.6470   -0.9724 O.3     1  UNL1       -0.3794
      8 O          20.2702   73.9452    0.6347 O.3     1  UNL1       -0.3779
      9 C          19.8343   72.7527   -1.4387 C.3     1  UNL1        0.1713
     10 C          20.7764   72.9921   -0.2774 C.3     1  UNL1        0.1895
     11 C          20.2719   71.3766   -1.9249 C.3     1  UNL1        0.1764
     12 C          20.8878   71.6037    0.3293 C.3     1  UNL1        0.2383
     13 H          18.1884   73.5139   -0.6570 H       1  UNL1        0.2105
     14 H          20.2182   74.8116    0.2018 H       1  UNL1        0.2106
     15 O          21.3879   71.9709    3.0849 O.2     1  UNL1       -0.2464
     16 O          25.8020   70.7236    2.6370 O.2     1  UNL1       -0.2670
     17 N          22.1585   71.3819    0.9598 N.ar    1  UNL1       -0.2551
     18 N          23.5853   71.3494    2.8597 N.ar    1  UNL1       -0.2743
     19 C          22.3041   71.5964    2.3502 C.ar    1  UNL1        0.3323
     20 C          23.2435   70.9559    0.2012 C.ar    1  UNL1        0.0869
     21 C          24.4590   70.7261    0.7020 C.ar    1  UNL1        0.0795
     22 C          24.6957   70.9264    2.1463 C.ar    1  UNL1        0.2626
     23 H          23.7105   71.4926    3.8259 H       1  UNL1        0.1734
     24 O          21.8916   72.6862   -5.3841 O.3     1  UNL1       -0.2703
     25 P          21.2383   73.4196   -6.6679 P.3     1  UNL1        0.2208
     26 O          22.2876   73.0932   -7.8554 O.co2   1  UNL1       -0.4371
     27 O          20.9647   74.8821   -6.4680 O.2     1  UNL1       -0.5170
     28 O          19.9341   72.5375   -7.0226 O.3     1  UNL1       -0.2858
     29 O          19.3142   70.3898   -6.2352 O.3     1  UNL1       -0.3258
     30 O          17.8696   70.1201  -10.0941 O.3     1  UNL1       -0.3794
     31 O          16.0284   70.3874   -7.9062 O.3     1  UNL1       -0.3794
     32 O          20.3760   71.4747   -9.5820 O.3     1  UNL1       -0.3775
     33 C          18.1851   70.7778   -8.8639 C.3     1  UNL1        0.1715
     34 C          17.4113   70.0876   -7.7389 C.3     1  UNL1        0.1694
     35 C          19.6898   70.6826   -8.6186 C.3     1  UNL1        0.1967
     36 C          17.8975   70.5592   -6.3618 C.3     1  UNL1        0.1761
     37 C          20.0607   71.1294   -7.2034 C.3     1  UNL1        0.2704
     38 H          16.9156   70.1773  -10.2560 H       1  UNL1        0.2105
     39 H          15.7341   70.0850   -8.7798 H       1  UNL1        0.2105
     40 H          20.1330   71.1818  -10.4736 H       1  UNL1        0.2106
     41 O          15.9384   70.2629   -5.0265 O.3     1  UNL1       -0.3794
     42 C          17.2505   69.7700   -5.2258 C.3     1  UNL1        0.1693
     43 H          15.5143   69.7696   -4.3065 H       1  UNL1        0.2105
@<TRIPOS>UNITY_ATOM_ATTR
2 1
charge -1
26 1
charge -1
@<TRIPOS>BOND
     1    25    28    1
     2    25    24    1
     3    25    26    1
     4    25    27    2
     5     1     4    1
     6     1    24    1
     7     1     2    1
     8     1     3    2
     9     6    11    1
    10     6    12    1
    11    29    36    1
    12    29    37    1
    13     7     9    1
    14     7    13    1
    15     8    10    1
    16     8    14    1
    17    28    37    1
    18     4     5    1
    19    30    33    1
    20    30    38    1
    21    31    34    1
    22    31    39    1
    23    32    35    1
    24    32    40    1
    25    41    42    1
    26    41    43    1
    27    15    19    2
    28    16    22    2
    29    17    12    1
    30    17    19   ar
    31    17    20   ar
    32    18    19   ar
    33    18    22   ar
    34    18    23    1
    35     9    10    1
    36     9    11    1
    37    10    12    1
    38    11     5    1
    39    33    34    1
    40    33    35    1
    41    34    36    1
    42    35    37    1
    43    36    42    1
    44    20    21   ar
    45    21    22   ar
@<TRIPOS>MOLECULE
*****
 43 45 0 0 0
SMALL
GASTEIGER

@<TRIPOS>ATOM
      1 P          23.5732   72.3765   -3.4578 P.3     1  UNL1        0.2189
      2 O          24.0772   70.8579   -3.2190 O.co2   1  UNL1       -0.4371
      3 O          24.6542   73.3546   -3.8132 O.2     1  UNL1       -0.5170
      4 O          22.7267   72.7194   -2.1222 O.3     1  UNL1       -0.3112
      5 C          23.4092   72.7603   -0.8811 C.3     1  UNL1        0.1811
      6 O          24.4454   71.0868    0.4972 O.3     1  UNL1       -0.3308
      7 O          21.6655   70.1791    1.1599 O.3     1  UNL1       -0.3794
      8 O          22.3541   71.6385    3.3582 O.3     1  UNL1       -0.3779
      9 C          22.1543   71.5010    0.9390 C.3     1  UNL1        0.1713
     10 C          22.9682   71.9663    2.1284 C.3     1  UNL1        0.1895
     11 C          23.2072   71.4345   -0.1603 C.3     1  UNL1        0.1764
     12 C          24.2821   71.2334    1.9173 C.3     1  UNL1        0.2383
     13 H          20.9914   70.1962    1.8578 H       1  UNL1        0.2105
     14 H          21.5224   72.1298    3.4456 H       1  UNL1        0.2106
     15 O          24.2276   73.9687    2.6196 O.2     1  UNL1       -0.2464
     16 O          28.6475   73.9100    3.9244 O.2     1  UNL1       -0.2670
     17 N          25.4042   71.9583    2.4433 N.ar    1  UNL1       -0.2551
     18 N          26.4284   73.9372    3.2689 N.ar    1  UNL1       -0.2743
     19 C          25.2720   73.3297    2.7630 C.ar    1  UNL1        0.3323
     20 C          26.6189   71.3096    2.6376 C.ar    1  UNL1        0.0869
     21 C          27.7125   71.9035    3.1197 C.ar    1  UNL1        0.0795
     22 C          27.6590   73.3354    3.4788 C.ar    1  UNL1        0.2626
     23 H          26.3601   74.8925    3.4982 H       1  UNL1        0.1734
     24 O          22.4244   72.2057   -4.5821 O.3     1  UNL1       -0.2703
     25 P          21.8047   73.2633   -5.6359 P.3     1  UNL1        0.2208
     26 O          22.8415   73.2021   -6.8763 O.co2   1  UNL1       -0.4371
     27 O          21.5920   74.6391   -5.0739 O.2     1  UNL1       -0.5170
     28 O          20.4654   72.5521   -6.1886 O.3     1  UNL1       -0.2858
     29 O          19.6051   70.3611   -5.9124 O.3     1  UNL1       -0.3258
     30 O          18.6299   70.9577   -9.8803 O.3     1  UNL1       -0.3794
     31 O          16.5572   70.9769   -7.8924 O.3     1  UNL1       -0.3794
     32 O          21.1429   71.9544   -8.8454 O.3     1  UNL1       -0.3775
     33 C          18.8371   71.3399   -8.5178 C.3     1  UNL1        0.1715
     34 C          17.8848   70.5246   -7.6409 C.3     1  UNL1        0.1694
     35 C          20.2900   71.0617   -8.1368 C.3     1  UNL1        0.1967
     36 C          18.2300   70.6814   -6.1538 C.3     1  UNL1        0.1761
     37 C          20.5146   71.1978   -6.6298 C.3     1  UNL1        0.2704
     38 H          17.7094   71.1322  -10.1288 H       1  UNL1        0.2105
     39 H          16.3521   70.8729   -8.8349 H       1  UNL1        0.2105
     40 H          20.9913   71.8584   -9.7981 H       1  UNL1        0.2106
     41 O          16.0733   69.7236   -5.7789 O.3     1  UNL1       -0.3794
     42 C          17.3949   69.7555   -5.2721 C.3     1  UNL1        0.1693
     43 H          15.5304   69.1378   -5.2277 H       1  UNL1        0.2105
@<TRIPOS>UNITY_ATOM_ATTR
2 1
charge -1
26 1
charge -1
@<TRIPOS>BOND
     1    25    28    1
     2    25    24    1
     3    25    26    1
     4    25    27    2
     5     1     4    1
     6     1    24    1
     7     1     2    1
     8     1     3    2
     9     6    11    1
    10     6    12    1
    11    29    36    1
    12    29    37    1
    13     7     9    1
    14     7    13    1
    15     8    10    1
    16     8    14    1
    17    28    37    1
    18     4     5    1
    19    30    33    1
    20    30    38    1
    21    31    34    1
    22    31    39    1
    23    32    35    1
    24    32    40    1
    25    41    42    1
    26    41    43    1
    27    15    19    2
    28    16    22    2
    29    17    12    1
    30    17    19   ar
    31    17    20   ar
    32    18    19   ar
    33    18    22   ar
    34    18    23    1
    35     9    10    1
    36     9    11    1
    37    10    12    1
    38    11     5    1
    39    33    34    1
    40    33    35    1
    41    34    36    1
    42    35    37    1
    43    36    42    1
    44    20    21   ar
    45    21    22   ar
@<TRIPOS>MOLECULE
*****
 43 45 0 0 0
SMALL
GASTEIGER

@<TRIPOS>ATOM
      1 P          20.4909   73.6028   -4.3121 P.3     1  UNL1        0.2189
      2 O          20.1560   74.4540   -5.6465 O.co2   1  UNL1       -0.4371
      3 O          21.6643   72.6750   -4.4300 O.2     1  UNL1       -0.5170
      4 O          19.0807   72.9071   -3.9310 O.3     1  UNL1       -0.3112
      5 C          17.8818   73.5988   -4.2343 C.3     1  UNL1        0.1811
      6 O          16.3751   72.2602   -5.5427 O.3     1  UNL1       -0.3308
      7 O          15.8430   70.7285   -3.0204 O.3     1  UNL1       -0.3794
      8 O          17.5803   69.1001   -4.3496 O.3     1  UNL1       -0.3779
      9 C          17.0606   71.3112   -3.4823 C.3     1  UNL1        0.1713
     10 C          17.6426   70.4872   -4.6119 C.3     1  UNL1        0.1895
     11 C          16.7179   72.6184   -4.1860 C.3     1  UNL1        0.1764
     12 C          16.7700   70.9000   -5.7850 C.3     1  UNL1        0.2383
     13 H          16.0365   69.8924   -2.5672 H       1  UNL1        0.2105
     14 H          18.1518   68.8875   -3.5953 H       1  UNL1        0.2106
     15 O          15.5249   70.4937   -8.2876 O.2     1  UNL1       -0.2464
     16 O          19.5514   70.6610  -10.5238 O.2     1  UNL1       -0.2670
     17 N          17.4689   70.8335   -7.0375 N.ar    1  UNL1       -0.2551
     18 N          17.5308   70.5776   -9.3990 N.ar    1  UNL1       -0.2743
     19 C          16.7496   70.6251   -8.2373 C.ar    1  UNL1        0.3323
     20 C          18.8520   70.9747   -7.0676 C.ar    1  UNL1        0.0869
     21 C          19.5823   70.9256   -8.1836 C.ar    1  UNL1        0.0795
     22 C          18.9079   70.7111   -9.4802 C.ar    1  UNL1        0.2626
     23 H          17.0513   70.4328  -10.2469 H       1  UNL1        0.1734
     24 O          20.6489   74.7469   -3.1812 O.3     1  UNL1       -0.2703
     25 P          21.8830   75.1080   -2.2016 P.3     1  UNL1        0.2208
     26 O          21.3674   76.4320   -1.4278 O.co2   1  UNL1       -0.4371
     27 O          23.1987   75.2749   -2.9051 O.2     1  UNL1       -0.5170
     28 O          21.8669   73.9479   -1.0796 O.3     1  UNL1       -0.2858
     29 O          23.9560   73.1972   -0.2497 O.3     1  UNL1       -0.3258
     30 O          21.5937   70.0288    0.9469 O.3     1  UNL1       -0.3794
     31 O          22.5776   71.8833    2.9067 O.3     1  UNL1       -0.3794
     32 O          21.1224   71.2953   -1.6131 O.3     1  UNL1       -0.3775
     33 C          21.8912   71.3995    0.6671 C.3     1  UNL1        0.1715
     34 C          23.0529   71.8308    1.5644 C.3     1  UNL1        0.1694
     35 C          22.2699   71.5374   -0.8063 C.3     1  UNL1        0.1967
     36 C          23.6035   73.1986    1.1386 C.3     1  UNL1        0.1761
     37 C          22.8520   72.9184   -1.1130 C.3     1  UNL1        0.2704
     38 H          21.3519   69.9345    1.8808 H       1  UNL1        0.2105
     39 H          22.2323   71.0137    3.1629 H       1  UNL1        0.2105
     40 H          20.7635   70.4180   -1.4098 H       1  UNL1        0.2106
     41 O          25.3943   72.4046    2.5067 O.3     1  UNL1       -0.3794
     42 C          24.8613   73.5765    1.9179 C.3     1  UNL1        0.1693
     43 H          26.1955   72.6298    3.0057 H       1  UNL1        0.2105
@<TRIPOS>UNITY_ATOM_ATTR
2 1
charge -1
26 1
charge -1
@<TRIPOS>BOND
     1    25    28    1
     2    25    24    1
     3    25    26    1
     4    25    27    2
     5     1     4    1
     6     1    24    1
     7     1     2    1
     8     1     3    2
     9     6    11    1
    10     6    12    1
    11    29    36    1
    12    29    37    1
    13     7     9    1
    14     7    13    1
    15     8    10    1
    16     8    14    1
    17    28    37    1
    18     4     5    1
    19    30    33    1
    20    30    38    1
    21    31    34    1
    22    31    39    1
    23    32    35    1
    24    32    40    1
    25    41    42    1
    26    41    43    1
    27    15    19    2
    28    16    22    2
    29    17    12    1
    30    17    19   ar
    31    17    20   ar
    32    18    19   ar
    33    18    22   ar
    34    18    23    1
    35     9    10    1
    36     9    11    1
    37    10    12    1
    38    11     5    1
    39    33    34    1
    40    33    35    1
    41    34    36    1
    42    35    37    1
    43    36    42    1
    44    20    21   ar
    45    21    22   ar
@<TRIPOS>MOLECULE
*****
 43 45 0 0 0
SMALL
GASTEIGER

@<TRIPOS>ATOM
      1 P          22.0158   75.0863   -4.0901 P.3     1  UNL1        0.2189
      2 O          23.2343   74.1790   -3.5338 O.co2   1  UNL1       -0.4371
      3 O          22.4327   76.3381   -4.8048 O.2     1  UNL1       -0.5170
      4 O          21.0675   75.2986   -2.7964 O.3     1  UNL1       -0.3112
      5 C          21.5981   75.0102   -1.5146 C.3     1  UNL1        0.1811
      6 O          20.9100   73.0843   -0.2531 O.3     1  UNL1       -0.3308
      7 O          18.9450   74.9030    1.0966 O.3     1  UNL1       -0.3794
      8 O          20.9470   74.7188    2.9390 O.3     1  UNL1       -0.3779
      9 C          20.2711   75.1802    0.6495 C.3     1  UNL1        0.1713
     10 C          21.2831   74.5419    1.5780 C.3     1  UNL1        0.1895
     11 C          20.4996   74.4121   -0.6463 C.3     1  UNL1        0.1764
     12 C          21.2312   73.0858    1.1475 C.3     1  UNL1        0.2383
     13 H          18.7756   75.3829    1.9230 H       1  UNL1        0.2105
     14 H          20.9946   75.6611    3.1641 H       1  UNL1        0.2106
     15 O          21.5708   70.2837    1.0433 O.2     1  UNL1       -0.2464
     16 O          26.0873   70.6154    1.8991 O.2     1  UNL1       -0.2670
     17 N          22.4850   72.4130    1.3391 N.ar    1  UNL1       -0.2551
     18 N          23.8194   70.4512    1.4694 N.ar    1  UNL1       -0.2743
     19 C          22.5474   71.0018    1.2676 C.ar    1  UNL1        0.3323
     20 C          23.6356   73.1511    1.5943 C.ar    1  UNL1        0.0869
     21 C          24.8409   72.6107    1.7857 C.ar    1  UNL1        0.0795
     22 C          24.9925   71.1425    1.7273 C.ar    1  UNL1        0.2626
     23 H          23.8870   69.4697    1.4245 H       1  UNL1        0.1734
     24 O          21.1706   74.0457   -4.9932 O.3     1  UNL1       -0.2703
     25 P          21.5316   72.5607   -5.5199 P.3     1  UNL1        0.2208
     26 O          21.4323   71.6578   -4.1810 O.co2   1  UNL1       -0.4371
     27 O          22.8480   72.4645   -6.2353 O.2     1  UNL1       -0.5170
     28 O          20.2558   72.1196   -6.4045 O.3     1  UNL1       -0.2858
     29 O          19.2674   70.0357   -5.8596 O.3     1  UNL1       -0.3258
     30 O          17.5966   70.6022   -9.5930 O.3     1  UNL1       -0.3794
     31 O          15.9621   70.8914   -7.2493 O.3     1  UNL1       -0.3794
     32 O          20.3441   71.3739   -9.1085 O.3     1  UNL1       -0.3775
     33 C          18.0999   71.0043   -8.3161 C.3     1  UNL1        0.1715
     34 C          17.2657   70.3164   -7.2336 C.3     1  UNL1        0.1694
     35 C          19.5671   70.5939   -8.2061 C.3     1  UNL1        0.1967
     36 C          17.9072   70.4844   -5.8496 C.3     1  UNL1        0.1761
     37 C          20.0929   70.7540   -6.7785 C.3     1  UNL1        0.2704
     38 H          16.6654   70.8602   -9.6694 H       1  UNL1        0.2105
     39 H          15.5684   70.7790   -8.1288 H       1  UNL1        0.2105
     40 H          20.0015   71.2637  -10.0087 H       1  UNL1        0.2106
     41 O          15.9861   70.3564   -4.4346 O.3     1  UNL1       -0.3794
     42 C          17.1782   69.6750   -4.7793 C.3     1  UNL1        0.1693
     43 H          15.5115   69.8526   -3.7545 H       1  UNL1        0.2105
@<TRIPOS>UNITY_ATOM_ATTR
2 1
charge -1
26 1
charge -1
@<TRIPOS>BOND
     1    25    28    1
     2    25    24    1
     3    25    26    1
     4    25    27    2
     5     1     4    1
     6     1    24    1
     7     1     2    1
     8     1     3    2
     9     6    11    1
    10     6    12    1
    11    29    36    1
    12    29    37    1
    13     7     9    1
    14     7    13    1
    15     8    10    1
    16     8    14    1
    17    28    37    1
    18     4     5    1
    19    30    33    1
    20    30    38    1
    21    31    34    1
    22    31    39    1
    23    32    35    1
    24    32    40    1
    25    41    42    1
    26    41    43    1
    27    15    19    2
    28    16    22    2
    29    17    12    1
    30    17    19   ar
    31    17    20   ar
    32    18    19   ar
    33    18    22   ar
    34    18    23    1
    35     9    10    1
    36     9    11    1
    37    10    12    1
    38    11     5    1
    39    33    34    1
    40    33    35    1
    41    34    36    1
    42    35    37    1
    43    36    42    1
    44    20    21   ar
    45    21    22   ar
@<TRIPOS>MOLECULE
*****
 43 45 0 0 0
SMALL
GASTEIGER

@<TRIPOS>ATOM
      1 P          23.5729   73.0191   -4.1366 P.3     1  UNL1        0.2189
      2 O          24.3089   71.6584   -3.6630 O.co2   1  UNL1       -0.4371
      3 O          24.4525   74.2340   -4.1780 O.2     1  UNL1       -0.5170
      4 O          22.2812   73.1195   -3.1675 O.3     1  UNL1       -0.3112
      5 C          22.4893   73.1730   -1.7669 C.3     1  UNL1        0.1811
      6 O          23.3459   71.3423   -0.4674 O.3     1  UNL1       -0.3308
      7 O          20.4852   70.5512   -0.0409 O.3     1  UNL1       -0.3794
      8 O          21.1130   71.7973    2.3021 O.3     1  UNL1       -0.3779
      9 C          21.0573   71.8552   -0.1279 C.3     1  UNL1        0.1713
     10 C          21.8193   72.1808    1.1398 C.3     1  UNL1        0.1895
     11 C          22.1716   71.8105   -1.1661 C.3     1  UNL1        0.1764
     12 C          23.1024   71.3903    0.9480 C.3     1  UNL1        0.2383
     13 H          19.7708   70.5549    0.6159 H       1  UNL1        0.2105
     14 H          20.3051   72.3285    2.3797 H       1  UNL1        0.2106
     15 O          25.0802   69.9840    2.3932 O.2     1  UNL1       -0.2464
     16 O          27.3706   73.8584    3.3852 O.2     1  UNL1       -0.2670
     17 N          24.2270   72.0065    1.5939 N.ar    1  UNL1       -0.2551
     18 N          26.2192   71.9143    2.8858 N.ar    1  UNL1       -0.2743
     19 C          25.1623   71.2101    2.2949 C.ar    1  UNL1        0.3323
     20 C          24.3939   73.3855    1.5283 C.ar    1  UNL1        0.0869
     21 C          25.4065   74.0419    2.0984 C.ar    1  UNL1        0.0795
     22 C          26.4278   73.2839    2.8497 C.ar    1  UNL1        0.2626
     23 H          26.8829   71.3803    3.3798 H       1  UNL1        0.1734
     24 O          22.9278   72.6067   -5.5603 O.3     1  UNL1       -0.2703
     25 P          22.2985   73.5117   -6.7426 P.3     1  UNL1        0.2208
     26 O          23.4969   73.5917   -7.8265 O.co2   1  UNL1       -0.4371
     27 O          21.7845   74.8471   -6.2881 O.2     1  UNL1       -0.5170
     28 O          21.1869   72.5668   -7.4328 O.3     1  UNL1       -0.2858
     29 O          19.2679   72.3979   -6.0525 O.3     1  UNL1       -0.3258
     30 O          18.2811   69.5773   -8.9023 O.3     1  UNL1       -0.3794
     31 O          16.8975   72.0936   -8.8592 O.3     1  UNL1       -0.3794
     32 O          21.0216   69.8241   -8.0033 O.3     1  UNL1       -0.3775
     33 C          18.8561   70.7937   -8.4175 C.3     1  UNL1        0.1715
     34 C          17.7396   71.6403   -7.8029 C.3     1  UNL1        0.1694
     35 C          19.9174   70.4615   -7.3702 C.3     1  UNL1        0.1967
     36 C          18.3126   72.8338   -7.0268 C.3     1  UNL1        0.1761
     37 C          20.3842   71.7120   -6.6228 C.3     1  UNL1        0.2704
     38 H          17.6068   69.7812   -9.5680 H       1  UNL1        0.2105
     39 H          16.5426   71.3304   -9.3416 H       1  UNL1        0.2105
     40 H          20.7131   69.0340   -8.4727 H       1  UNL1        0.2106
     41 O          16.5682   74.4584   -7.1891 O.3     1  UNL1       -0.3794
     42 C          17.2274   73.6014   -6.2751 C.3     1  UNL1        0.1693
     43 H          15.8745   74.9533   -6.7247 H       1  UNL1        0.2105
@<TRIPOS>UNITY_ATOM_ATTR
2 1
charge -1
26 1
charge -1
@<TRIPOS>BOND
     1    25    28    1
     2    25    24    1
     3    25    26    1
     4    25    27    2
     5     1     4    1
     6     1    24    1
     7     1     2    1
     8     1     3    2
     9     6    11    1
    10     6    12    1
    11    29    36    1
    12    29    37    1
    13     7     9    1
    14     7    13    1
    15     8    10    1
    16     8    14    1
    17    28    37    1
    18     4     5    1
    19    30    33    1
    20    30    38    1
    21    31    34    1
    22    31    39    1
    23    32    35    1
    24    32    40    1
    25    41    42    1
    26    41    43    1
    27    15    19    2
    28    16    22    2
    29    17    12    1
    30    17    19   ar
    31    17    20   ar
    32    18    19   ar
    33    18    22   ar
    34    18    23    1
    35     9    10    1
    36     9    11    1
    37    10    12    1
    38    11     5    1
    39    33    34    1
    40    33    35    1
    41    34    36    1
    42    35    37    1
    43    36    42    1
    44    20    21   ar
    45    21    22   ar
