# created with PyMOL 2.5.4
@<TRIPOS>MOLECULE
UD1
64 66 1                 
SMALL
USER_CHARGES
@<TRIPOS>ATOM
1	 C1'	-0.127	-0.516	-4.650	C.3	1	UD10	0.000	
2	 C2'	-0.001	0.298	-5.939	C.3	1	UD10	0.000	
3	 C3'	-1.173	1.282	-6.027	C.3	1	UD10	0.000	
4	 C4'	-2.482	0.500	-5.875	C.3	1	UD10	0.000	
5	 C5'	-2.422	-0.327	-4.589	C.3	1	UD10	0.000	
6	 C6'	-3.738	-1.087	-4.411	C.3	1	UD10	0.000	
7	 C7'	2.375	0.482	-6.444	C.2	1	UD10	0.000	
8	 C8'	3.675	1.245	-6.433	C.3	1	UD10	0.000	
9	 N2'	1.262	1.039	-5.929	N.pl3	1	UD10	0.000	
10	 O1'	-0.126	0.371	-3.530	O.3	1	UD10	0.000	
11	 O3'	-1.150	1.942	-7.294	O.3	1	UD10	0.000	
12	 O4'	-3.579	1.413	-5.807	O.3	1	UD10	0.000	
13	 O5'	-1.344	-1.259	-4.665	O.3	1	UD10	0.000	
14	 O6'	-3.683	-1.861	-3.211	O.3	1	UD10	0.000	
15	 O7'	2.331	-0.634	-6.916	O.2	1	UD10	0.000	
16	  N1	-0.670	0.697	6.267	N.pl3	1	UD10	0.000	
17	  C2	-1.413	-0.367	5.916	C.2	1	UD10	0.000	
18	  N3	-2.661	-0.529	6.394	N.pl3	1	UD10	0.000	
19	  C4	-3.192	0.385	7.231	C.2	1	UD10	0.000	
20	  C5	-2.423	1.513	7.604	C.2	1	UD10	0.000	
21	  C6	-1.172	1.648	7.114	C.2	1	UD10	0.000	
22	  O2	-0.948	-1.200	5.162	O.2	1	UD10	0.000	
23	  O4	-4.322	0.242	7.660	O.2	1	UD10	0.000	
24	 C1B	0.685	0.843	5.734	C.3	1	UD10	0.000	
25	 C2B	1.541	-0.407	6.058	C.3	1	UD10	0.000	
26	 O2'	2.141	-0.295	7.349	O.3	1	UD10	0.000	
27	 C3B	2.617	-0.363	4.942	C.3	1	UD10	0.000	
28	 C4B	1.982	0.512	3.844	C.3	1	UD10	0.000	
29	 O4B	0.664	0.873	4.291	O.3	1	UD10	0.000	
30	 O3B	3.821	0.232	5.431	O.3	1	UD10	0.000	
31	 C5B	1.890	-0.277	2.537	C.3	1	UD10	0.000	
32	 O5B	1.293	0.539	1.528	O.3	1	UD10	0.000	
33	  PA	1.228	-0.350	0.187	P.3	1	UD10	0.000	
34	 O1A	0.411	-1.558	0.436	O.co2	1	UD10	0.000	
35	 O2A	2.718	-0.788	-0.238	O.co2	1	UD10	0.000	
36	 O3A	0.563	0.513	-0.997	O.3	1	UD10	0.000	
37	  PB	0.530	-0.432	-2.299	P.3	1	UD10	0.000	
38	 O1B	-0.276	-1.639	-2.012	O.co2	1	UD10	0.000	
39	 O2B	2.031	-0.869	-2.684	O.co2	1	UD10	0.000	
40	 H1'	0.715	-1.203	-4.569	 H	1	UD10	0.000	
41	 H2'	-0.022	-0.372	-6.798	 H	1	UD10	0.000	
42	 H3'	-1.092	2.019	-5.229	 H	1	UD10	0.000	
43	 H4'	-2.613	-0.163	-6.730	 H	1	UD10	0.000	
44	 H5'	-2.268	0.335	-3.738	 H	1	UD10	0.000	
45	H6'1	-4.562	-0.377	-4.348	 H	1	UD10	0.000	
46	H6'2	-3.893	-1.749	-5.263	 H	1	UD10	0.000	
47	H8'1	4.457	0.637	-6.888	 H	1	UD10	0.000	
48	H8'2	3.558	2.169	-6.998	 H	1	UD10	0.000	
49	H8'3	3.949	1.480	-5.405	 H	1	UD10	0.000	
50	HN2'	1.297	1.932	-5.551	 H	1	UD10	0.000	
51	HO3'	-1.902	2.550	-7.306	 H	1	UD10	0.000	
52	HO4'	-4.381	0.880	-5.711	 H	1	UD10	0.000	
53	HO6'	-4.529	-2.323	-3.137	 H	1	UD10	0.000	
54	 HN3	-3.181	-1.305	6.134	 H	1	UD10	0.000	
55	  H5	-2.831	2.256	8.274	 H	1	UD10	0.000	
56	  H6	-0.571	2.502	7.388	 H	1	UD10	0.000	
57	 H1B	1.157	1.743	6.129	 H	1	UD10	0.000	
58	 H2B	0.943	-1.316	5.987	 H	1	UD10	0.000	
59	HO2'	2.657	-1.101	7.489	 H	1	UD10	0.000	
60	 H3B	2.816	-1.365	4.563	 H	1	UD10	0.000	
61	 H4B	2.581	1.410	3.693	 H	1	UD10	0.000	
62	HO3A	4.136	-0.328	6.153	 H	1	UD10	0.000	
63	H5'1	1.279	-1.167	2.692	 H	1	UD10	0.000	
64	H5'2	2.890	-0.573	2.220	 H	1	UD10	0.000	
@<TRIPOS>BOND
1 1 2 1
2 1 10 1
3 1 13 1
4 1 40 1
5 2 3 1
6 2 9 1
7 2 41 1
8 3 4 1
9 3 11 1
10 3 42 1
11 4 5 1
12 4 12 1
13 4 43 1
14 5 6 1
15 5 13 1
16 5 44 1
17 6 14 1
18 6 45 1
19 6 46 1
20 7 8 1
21 7 9 1
22 7 15 2
23 8 47 1
24 8 48 1
25 8 49 1
26 9 50 1
27 10 37 1
28 11 51 1
29 12 52 1
30 14 53 1
31 16 17 1
32 16 21 1
33 16 24 1
34 17 18 1
35 17 22 2
36 18 19 1
37 18 54 1
38 19 20 1
39 19 23 2
40 20 21 2
41 20 55 1
42 21 56 1
43 24 25 1
44 24 29 1
45 24 57 1
46 25 26 1
47 25 27 1
48 25 58 1
49 26 59 1
50 27 28 1
51 27 30 1
52 27 60 1
53 28 29 1
54 28 31 1
55 28 61 1
56 30 62 1
57 31 32 1
58 31 63 1
59 31 64 1
60 32 33 1
61 33 34 2
62 33 35 1
63 33 36 1
64 36 37 1
65 37 38 2
66 37 39 1
@<TRIPOS>SUBSTRUCTURE
1	UD10	1	GROUP	1 ****	UD1
