@<TRIPOS>MOLECULE
*****
 43 45 0 0 0
SMALL
GASTEIGER

@<TRIPOS>ATOM
      1 P          23.0336   71.5524   -2.5214 P.3     1  UNL1        0.2189
      2 O          22.8116   73.0466   -3.1018 O.co2   1  UNL1       -0.4371
      3 O          24.1038   70.7576   -3.2105 O.2     1  UNL1       -0.5170
      4 O          21.5519   70.9029   -2.5435 O.3     1  UNL1       -0.3112
      5 C          20.8488   70.8642   -3.7718 C.3     1  UNL1        0.1811
      6 O          18.8344   71.7675   -4.7224 O.3     1  UNL1       -0.3308
      7 O          17.3853   70.4022   -2.4802 O.3     1  UNL1       -0.3794
      8 O          16.9689   68.7092   -4.5770 O.3     1  UNL1       -0.3779
      9 C          18.5345   69.9701   -3.2090 C.3     1  UNL1        0.1713
     10 C          18.1336   69.5079   -4.5939 C.3     1  UNL1        0.1895
     11 C          19.3843   71.1957   -3.5158 C.3     1  UNL1        0.1764
     12 C          17.9278   70.8267   -5.3193 C.3     1  UNL1        0.2383
     13 H          16.8268   69.6362   -2.2727 H       1  UNL1        0.2105
     14 H          17.1515   67.8814   -4.1045 H       1  UNL1        0.2106
     15 O          16.0562   70.0189   -7.2741 O.2     1  UNL1       -0.2464
     16 O          19.1301   70.4930  -10.6757 O.2     1  UNL1       -0.2670
     17 N          18.2124   70.7302   -6.7231 N.ar    1  UNL1       -0.2551
     18 N          17.5893   70.2548   -8.9663 N.ar    1  UNL1       -0.2743
     19 C          17.2014   70.3140   -7.6213 C.ar    1  UNL1        0.3323
     20 C          19.4794   71.0474   -7.1973 C.ar    1  UNL1        0.0869
     21 C          19.8342   70.9862   -8.4823 C.ar    1  UNL1        0.0795
     22 C          18.8370   70.5596   -9.4857 C.ar    1  UNL1        0.2626
     23 H          16.9030   69.9657   -9.6103 H       1  UNL1        0.1734
     24 O          23.2942   71.8096   -0.9470 O.3     1  UNL1       -0.2703
     25 P          22.5971   71.1680    0.3629 P.3     1  UNL1        0.2208
     26 O          23.7566   70.2154    0.9699 O.co2   1  UNL1       -0.4371
     27 O          21.2997   70.4643    0.0879 O.2     1  UNL1       -0.5170
     28 O          22.4865   72.3915    1.4085 O.3     1  UNL1       -0.2858
     29 O          24.0420   72.6776    3.1714 O.3     1  UNL1       -0.3226
     30 O          20.8263   74.8931    4.5199 O.3     1  UNL1       -0.3794
     31 O          20.4071   72.2943    3.2531 O.3     1  UNL1       -0.3775
     32 O          23.1716   76.2315    3.4434 O.3     1  UNL1       -0.3792
     33 C          21.7007   74.3260    3.5443 C.3     1  UNL1        0.1718
     34 C          21.6736   72.8015    3.6573 C.3     1  UNL1        0.1968
     35 C          23.1121   74.8544    3.8101 C.3     1  UNL1        0.1723
     36 C          22.7631   72.1692    2.7901 C.3     1  UNL1        0.2706
     37 C          24.1551   74.0887    3.0012 C.3     1  UNL1        0.1830
     38 H          19.9232   74.5714    4.3709 H       1  UNL1        0.2105
     39 H          19.7110   72.6915    3.7990 H       1  UNL1        0.2106
     40 H          22.5124   76.7301    3.9511 H       1  UNL1        0.2106
     41 O          26.3933   73.3992    3.1287 O.co2   1  UNL1       -0.5466
     42 O          25.8486   75.3595    4.1580 O.co2   1  UNL1       -0.5466
     43 C          25.5324   74.3779    3.5027 C.2     1  UNL1        0.0799
@<TRIPOS>UNITY_ATOM_ATTR
2 1
charge -1
26 1
charge -1
41 1
charge -1
@<TRIPOS>BOND
     1     1     4    1
     2     1    24    1
     3     1     2    1
     4     1     3    2
     5    25    28    1
     6    25    24    1
     7    25    26    1
     8    25    27    2
     9     6    11    1
    10     6    12    1
    11    29    36    1
    12    29    37    1
    13     7     9    1
    14     7    13    1
    15     8    10    1
    16     8    14    1
    17     4     5    1
    18    28    36    1
    19    30    33    1
    20    30    38    1
    21    31    34    1
    22    31    39    1
    23    32    35    1
    24    32    40    1
    25    41    43   ar
    26    15    19    2
    27    42    43   ar
    28    16    22    2
    29    17    12    1
    30    17    19   ar
    31    17    20   ar
    32    18    19   ar
    33    18    22   ar
    34    18    23    1
    35     9    10    1
    36     9    11    1
    37    10    12    1
    38    11     5    1
    39    33    34    1
    40    33    35    1
    41    34    36    1
    42    35    37    1
    43    37    43    1
    44    20    21   ar
    45    21    22   ar
@<TRIPOS>MOLECULE
*****
 43 45 0 0 0
SMALL
GASTEIGER

@<TRIPOS>ATOM
      1 P          22.7351   71.4146   -2.4147 P.3     1  UNL1        0.2189
      2 O          22.2728   72.7782   -3.1534 O.co2   1  UNL1       -0.4371
      3 O          24.0734   70.8858   -2.8406 O.2     1  UNL1       -0.5170
      4 O          21.4830   70.4126   -2.6295 O.3     1  UNL1       -0.3112
      5 C          20.7911   70.4501   -3.8642 C.3     1  UNL1        0.1811
      6 O          18.9174   71.5994   -4.8368 O.3     1  UNL1       -0.3308
      7 O          17.2817   70.4255   -2.6148 O.3     1  UNL1       -0.3794
      8 O          16.6816   68.7991   -4.7198 O.3     1  UNL1       -0.3779
      9 C          18.3763   69.8531   -3.3308 C.3     1  UNL1        0.1713
     10 C          17.9373   69.4454   -4.7212 C.3     1  UNL1        0.1895
     11 C          19.3767   70.9625   -3.6249 C.3     1  UNL1        0.1764
     12 C          17.9073   70.7800   -5.4464 C.3     1  UNL1        0.2383
     13 H          16.6291   69.7355   -2.4154 H       1  UNL1        0.2105
     14 H          16.7531   67.9547   -4.2467 H       1  UNL1        0.2106
     15 O          15.9573   70.3272   -7.4386 O.2     1  UNL1       -0.2464
     16 O          19.1235   70.2951  -10.7880 O.2     1  UNL1       -0.2670
     17 N          18.1944   70.6493   -6.8469 N.ar    1  UNL1       -0.2551
     18 N          17.5362   70.3106   -9.1048 N.ar    1  UNL1       -0.2743
     19 C          17.1419   70.4230   -7.7651 C.ar    1  UNL1        0.3323
     20 C          19.5050   70.7469   -7.2982 C.ar    1  UNL1        0.0869
     21 C          19.8654   70.6377   -8.5784 C.ar    1  UNL1        0.0795
     22 C          18.8264   70.3999   -9.6018 C.ar    1  UNL1        0.2626
     23 H          16.8211   70.1508   -9.7624 H       1  UNL1        0.1734
     24 O          22.6298   71.7971   -0.8477 O.3     1  UNL1       -0.2703
     25 P          21.3544   71.8736    0.1428 P.3     1  UNL1        0.2208
     26 O          21.0968   70.3243    0.5345 O.co2   1  UNL1       -0.4371
     27 O          20.1605   72.5701   -0.4433 O.2     1  UNL1       -0.5170
     28 O          21.9251   72.5457    1.4937 O.3     1  UNL1       -0.2858
     29 O          23.5961   71.0619    2.2783 O.3     1  UNL1       -0.3226
     30 O          23.8700   74.1539    5.0046 O.3     1  UNL1       -0.3794
     31 O          21.2592   73.1898    4.1162 O.3     1  UNL1       -0.3775
     32 O          25.8727   73.8675    2.9170 O.3     1  UNL1       -0.3792
     33 C          23.6262   73.5576    3.7307 C.3     1  UNL1        0.1718
     34 C          22.4951   72.5360    3.8519 C.3     1  UNL1        0.1968
     35 C          24.9161   72.8718    3.2749 C.3     1  UNL1        0.1723
     36 C          22.3597   71.7150    2.5688 C.3     1  UNL1        0.2706
     37 C          24.6721   71.9731    2.0660 C.3     1  UNL1        0.1830
     38 H          23.0638   74.5958    5.3146 H       1  UNL1        0.2105
     39 H          21.3381   73.7129    4.9290 H       1  UNL1        0.2106
     40 H          26.0368   74.4464    3.6778 H       1  UNL1        0.2106
     41 O          25.6319   70.2927    0.7407 O.co2   1  UNL1       -0.5466
     42 O          26.8426   71.0262    2.5282 O.co2   1  UNL1       -0.5466
     43 C          25.8377   71.0676    1.8344 C.2     1  UNL1        0.0799
@<TRIPOS>UNITY_ATOM_ATTR
2 1
charge -1
26 1
charge -1
41 1
charge -1
@<TRIPOS>BOND
     1     1     4    1
     2     1    24    1
     3     1     2    1
     4     1     3    2
     5    25    28    1
     6    25    24    1
     7    25    26    1
     8    25    27    2
     9     6    11    1
    10     6    12    1
    11    29    36    1
    12    29    37    1
    13     7     9    1
    14     7    13    1
    15     8    10    1
    16     8    14    1
    17     4     5    1
    18    28    36    1
    19    30    33    1
    20    30    38    1
    21    31    34    1
    22    31    39    1
    23    32    35    1
    24    32    40    1
    25    41    43   ar
    26    15    19    2
    27    42    43   ar
    28    16    22    2
    29    17    12    1
    30    17    19   ar
    31    17    20   ar
    32    18    19   ar
    33    18    22   ar
    34    18    23    1
    35     9    10    1
    36     9    11    1
    37    10    12    1
    38    11     5    1
    39    33    34    1
    40    33    35    1
    41    34    36    1
    42    35    37    1
    43    37    43    1
    44    20    21   ar
    45    21    22   ar
@<TRIPOS>MOLECULE
*****
 43 45 0 0 0
SMALL
GASTEIGER

@<TRIPOS>ATOM
      1 P          21.1902   72.0279   -4.4956 P.3     1  UNL1        0.2189
      2 O          20.4272   73.3460   -3.9483 O.co2   1  UNL1       -0.4371
      3 O          22.0723   72.2557   -5.6879 O.2     1  UNL1       -0.5170
      4 O          20.0030   70.9470   -4.6961 O.3     1  UNL1       -0.3112
      5 C          19.3472   70.4421   -3.5474 C.3     1  UNL1        0.1811
      6 O          17.6319   71.4769   -4.8758 O.3     1  UNL1       -0.3308
      7 O          15.6684   70.0199   -3.1399 O.3     1  UNL1       -0.3794
      8 O          15.7267   68.4840   -5.3924 O.3     1  UNL1       -0.3779
      9 C          16.9487   69.5960   -3.6084 C.3     1  UNL1        0.1713
     10 C          16.8775   69.2401   -5.0783 C.3     1  UNL1        0.1895
     11 C          17.8703   70.8080   -3.6184 C.3     1  UNL1        0.1764
     12 C          16.8741   70.6101   -5.7347 C.3     1  UNL1        0.2383
     13 H          15.0621   69.2623   -3.1248 H       1  UNL1        0.2105
     14 H          15.7766   67.6209   -4.9511 H       1  UNL1        0.2106
     15 O          15.4404   70.4110   -8.1599 O.2     1  UNL1       -0.2464
     16 O          19.3041   70.5646  -10.6684 O.2     1  UNL1       -0.2670
     17 N          17.4803   70.5958   -7.0360 N.ar    1  UNL1       -0.2551
     18 N          17.3662   70.4867   -9.4069 N.ar    1  UNL1       -0.2743
     19 C          16.6698   70.4922   -8.1911 C.ar    1  UNL1        0.3323
     20 C          18.8615   70.6854   -7.1586 C.ar    1  UNL1        0.0869
     21 C          19.5110   70.6789   -8.3244 C.ar    1  UNL1        0.0795
     22 C          18.7382   70.5728   -9.5794 C.ar    1  UNL1        0.2626
     23 H          16.8234   70.4133  -10.2250 H       1  UNL1        0.1734
     24 O          21.9599   71.4829   -3.1828 O.3     1  UNL1       -0.2703
     25 P          23.4393   71.7987   -2.6122 P.3     1  UNL1        0.2208
     26 O          23.7656   73.2628   -3.2206 O.co2   1  UNL1       -0.4371
     27 O          24.4626   70.7504   -2.9406 O.2     1  UNL1       -0.5170
     28 O          23.2236   72.0524   -1.0338 O.3     1  UNL1       -0.2858
     29 O          24.3932   71.0524    0.7665 O.3     1  UNL1       -0.3226
     30 O          20.7186   71.8371    2.4839 O.3     1  UNL1       -0.3794
     31 O          20.8872   70.7739   -0.2319 O.3     1  UNL1       -0.3775
     32 O          23.0099   73.5126    3.1109 O.3     1  UNL1       -0.3792
     33 C          21.8192   72.0596    1.6024 C.3     1  UNL1        0.1718
     34 C          21.9820   70.8563    0.6732 C.3     1  UNL1        0.1968
     35 C          23.0766   72.2483    2.4540 C.3     1  UNL1        0.1723
     36 C          23.2824   70.9540   -0.1256 C.3     1  UNL1        0.2706
     37 C          24.3398   72.2089    1.5989 C.3     1  UNL1        0.1830
     38 H          19.9081   71.7143    1.9649 H       1  UNL1        0.2105
     39 H          20.0587   70.7120    0.2682 H       1  UNL1        0.2106
     40 H          22.2102   73.5508    3.6585 H       1  UNL1        0.2106
     41 O          26.0464   70.8009    2.3775 O.co2   1  UNL1       -0.5466
     42 O          26.0476   72.9525    3.1324 O.co2   1  UNL1       -0.5466
     43 C          25.5555   72.0626    2.4549 C.2     1  UNL1        0.0799
@<TRIPOS>UNITY_ATOM_ATTR
2 1
charge -1
26 1
charge -1
41 1
charge -1
@<TRIPOS>BOND
     1     1     4    1
     2     1    24    1
     3     1     2    1
     4     1     3    2
     5    25    28    1
     6    25    24    1
     7    25    26    1
     8    25    27    2
     9     6    11    1
    10     6    12    1
    11    29    36    1
    12    29    37    1
    13     7     9    1
    14     7    13    1
    15     8    10    1
    16     8    14    1
    17     4     5    1
    18    28    36    1
    19    30    33    1
    20    30    38    1
    21    31    34    1
    22    31    39    1
    23    32    35    1
    24    32    40    1
    25    41    43   ar
    26    15    19    2
    27    42    43   ar
    28    16    22    2
    29    17    12    1
    30    17    19   ar
    31    17    20   ar
    32    18    19   ar
    33    18    22   ar
    34    18    23    1
    35     9    10    1
    36     9    11    1
    37    10    12    1
    38    11     5    1
    39    33    34    1
    40    33    35    1
    41    34    36    1
    42    35    37    1
    43    37    43    1
    44    20    21   ar
    45    21    22   ar
@<TRIPOS>MOLECULE
*****
 43 45 0 0 0
SMALL
GASTEIGER

@<TRIPOS>ATOM
      1 P          21.4119   71.4977   -2.4537 P.3     1  UNL1        0.2189
      2 O          20.7513   72.7841   -3.1801 O.co2   1  UNL1       -0.4371
      3 O          22.6865   71.0050   -3.0739 O.2     1  UNL1       -0.5170
      4 O          20.2023   70.4252   -2.3874 O.3     1  UNL1       -0.3112
      5 C          19.5994   70.0104   -3.5994 C.3     1  UNL1        0.1811
      6 O          17.9652   71.2672   -4.8353 O.3     1  UNL1       -0.3308
      7 O          15.9012   69.8599   -3.1768 O.3     1  UNL1       -0.3794
      8 O          15.8197   68.4793   -5.5270 O.3     1  UNL1       -0.3779
      9 C          17.1397   69.3665   -3.6878 C.3     1  UNL1        0.1713
     10 C          17.0301   69.1172   -5.1772 C.3     1  UNL1        0.1895
     11 C          18.1566   70.4981   -3.6282 C.3     1  UNL1        0.1764
     12 C          17.1338   70.5241   -5.7409 C.3     1  UNL1        0.2383
     13 H          15.2354   69.1544   -3.2048 H       1  UNL1        0.2105
     14 H          15.8021   67.5873   -5.1448 H       1  UNL1        0.2106
     15 O          15.6753   70.4508   -8.1583 O.2     1  UNL1       -0.2464
     16 O          19.5195   70.6227  -10.6953 O.2     1  UNL1       -0.2670
     17 N          17.7283   70.5485   -7.0474 N.ar    1  UNL1       -0.2551
     18 N          17.5913   70.5355   -9.4196 N.ar    1  UNL1       -0.2743
     19 C          16.9058   70.5075   -8.1980 C.ar    1  UNL1        0.3323
     20 C          19.1100   70.6141   -7.1795 C.ar    1  UNL1        0.0869
     21 C          19.7490   70.6401   -8.3507 C.ar    1  UNL1        0.0795
     22 C          18.9633   70.5997   -9.6015 C.ar    1  UNL1        0.2626
     23 H          17.0400   70.5058  -10.2347 H       1  UNL1        0.1734
     24 O          21.5535   71.9812   -0.9178 O.3     1  UNL1       -0.2703
     25 P          22.2126   71.2547    0.3673 P.3     1  UNL1        0.2208
     26 O          23.7528   71.0367   -0.0807 O.co2   1  UNL1       -0.4371
     27 O          21.5087   69.9987    0.7929 O.2     1  UNL1       -0.5170
     28 O          22.2762   72.4028    1.4987 O.3     1  UNL1       -0.2858
     29 O          21.9339   72.5447    3.8379 O.3     1  UNL1       -0.3226
     30 O          19.9660   75.9195    2.4942 O.3     1  UNL1       -0.3794
     31 O          19.7123   73.3875    1.0593 O.3     1  UNL1       -0.3775
     32 O          22.5662   76.1583    3.7721 O.3     1  UNL1       -0.3792
     33 C          20.9675   74.9023    2.4792 C.3     1  UNL1        0.1718
     34 C          20.3029   73.5318    2.3458 C.3     1  UNL1        0.1968
     35 C          21.7494   74.9891    3.7918 C.3     1  UNL1        0.1723
     36 C          21.3189   72.4083    2.5563 C.3     1  UNL1        0.2706
     37 C          22.6468   73.7705    3.9873 C.3     1  UNL1        0.1830
     38 H          19.4561   75.8837    1.6695 H       1  UNL1        0.2105
     39 H          19.0667   74.0973    0.9189 H       1  UNL1        0.2106
     40 H          22.0071   76.9412    3.6481 H       1  UNL1        0.2106
     41 O          24.2829   74.4239    5.5358 O.co2   1  UNL1       -0.5466
     42 O          22.6077   73.0780    6.2983 O.co2   1  UNL1       -0.5466
     43 C          23.1456   73.6992    5.3939 C.2     1  UNL1        0.0799
@<TRIPOS>UNITY_ATOM_ATTR
2 1
charge -1
26 1
charge -1
41 1
charge -1
@<TRIPOS>BOND
     1     1     4    1
     2     1    24    1
     3     1     2    1
     4     1     3    2
     5    25    28    1
     6    25    24    1
     7    25    26    1
     8    25    27    2
     9     6    11    1
    10     6    12    1
    11    29    36    1
    12    29    37    1
    13     7     9    1
    14     7    13    1
    15     8    10    1
    16     8    14    1
    17     4     5    1
    18    28    36    1
    19    30    33    1
    20    30    38    1
    21    31    34    1
    22    31    39    1
    23    32    35    1
    24    32    40    1
    25    41    43   ar
    26    15    19    2
    27    42    43   ar
    28    16    22    2
    29    17    12    1
    30    17    19   ar
    31    17    20   ar
    32    18    19   ar
    33    18    22   ar
    34    18    23    1
    35     9    10    1
    36     9    11    1
    37    10    12    1
    38    11     5    1
    39    33    34    1
    40    33    35    1
    41    34    36    1
    42    35    37    1
    43    37    43    1
    44    20    21   ar
    45    21    22   ar
@<TRIPOS>MOLECULE
*****
 43 45 0 0 0
SMALL
GASTEIGER

@<TRIPOS>ATOM
      1 P          20.9105   71.4455   -3.7993 P.3     1  UNL1        0.2189
      2 O          20.4040   71.7076   -5.3138 O.co2   1  UNL1       -0.4371
      3 O          21.2767   70.0233   -3.4908 O.2     1  UNL1       -0.5170
      4 O          19.7405   72.0845   -2.8824 O.3     1  UNL1       -0.3112
      5 C          18.6311   71.2742   -2.5402 C.3     1  UNL1        0.1811
      6 O          16.5118   70.4848   -3.3543 O.3     1  UNL1       -0.3308
      7 O          16.2150   73.1757   -4.6437 O.3     1  UNL1       -0.3794
      8 O          14.6586   73.4072   -2.4166 O.3     1  UNL1       -0.3779
      9 C          16.8109   72.8342   -3.3920 C.3     1  UNL1        0.1713
     10 C          15.7399   72.4996   -2.3755 C.3     1  UNL1        0.1895
     11 C          17.5207   71.4975   -3.5587 C.3     1  UNL1        0.1764
     12 C          15.3396   71.0940   -2.7902 C.3     1  UNL1        0.2383
     13 H          15.7555   74.0264   -4.5620 H       1  UNL1        0.2105
     14 H          14.9644   74.2870   -2.1440 H       1  UNL1        0.2106
     15 O          16.5536   68.6849   -1.9543 O.2     1  UNL1       -0.2464
     16 O          13.5300   68.1400    1.4814 O.2     1  UNL1       -0.2670
     17 N          14.8901   70.3023   -1.6803 N.ar    1  UNL1       -0.2551
     18 N          15.0459   68.4153   -0.2446 N.ar    1  UNL1       -0.2743
     19 C          15.5704   69.1082   -1.3436 C.ar    1  UNL1        0.3323
     20 C          13.7890   70.7109   -0.9377 C.ar    1  UNL1        0.0869
     21 C          13.3007   70.0399    0.1074 C.ar    1  UNL1        0.0795
     22 C          13.9531   68.7814    0.5244 C.ar    1  UNL1        0.2626
     23 H          15.5016   67.5798    0.0076 H       1  UNL1        0.1734
     24 O          22.1211   72.5037   -3.6333 O.3     1  UNL1       -0.2703
     25 P          23.6489   72.3006   -3.1454 P.3     1  UNL1        0.2208
     26 O          24.5027   73.1118   -4.2559 O.co2   1  UNL1       -0.4371
     27 O          24.0566   70.8653   -2.9790 O.2     1  UNL1       -0.5170
     28 O          23.7727   73.1913   -1.8060 O.3     1  UNL1       -0.2858
     29 O          21.9309   72.7205   -0.3936 O.3     1  UNL1       -0.3226
     30 O          23.9255   75.6236    1.7655 O.3     1  UNL1       -0.3794
     31 O          23.6108   75.8838   -1.1272 O.3     1  UNL1       -0.3775
     32 O          24.0950   72.8345    2.5671 O.3     1  UNL1       -0.3792
     33 C          23.8041   74.5190    0.8693 C.3     1  UNL1        0.1718
     34 C          22.9374   74.9212   -0.3243 C.3     1  UNL1        0.1968
     35 C          23.1561   73.3609    1.6313 C.3     1  UNL1        0.1723
     36 C          22.5952   73.7052   -1.1863 C.3     1  UNL1        0.2706
     37 C          22.7296   72.2414    0.6861 C.3     1  UNL1        0.1830
     38 H          24.3349   76.3719    1.3031 H       1  UNL1        0.2105
     39 H          23.8312   76.6580   -0.5865 H       1  UNL1        0.2106
     40 H          24.3746   73.5370    3.1746 H       1  UNL1        0.2106
     41 O          21.2786   71.8475    2.4863 O.co2   1  UNL1       -0.5466
     42 O          21.5819   70.1429    1.0026 O.co2   1  UNL1       -0.5466
     43 C          21.8174   71.2815    1.3780 C.2     1  UNL1        0.0799
@<TRIPOS>UNITY_ATOM_ATTR
2 1
charge -1
26 1
charge -1
41 1
charge -1
@<TRIPOS>BOND
     1     1     4    1
     2     1    24    1
     3     1     2    1
     4     1     3    2
     5    25    28    1
     6    25    24    1
     7    25    26    1
     8    25    27    2
     9     6    11    1
    10     6    12    1
    11    29    36    1
    12    29    37    1
    13     7     9    1
    14     7    13    1
    15     8    10    1
    16     8    14    1
    17     4     5    1
    18    28    36    1
    19    30    33    1
    20    30    38    1
    21    31    34    1
    22    31    39    1
    23    32    35    1
    24    32    40    1
    25    41    43   ar
    26    15    19    2
    27    42    43   ar
    28    16    22    2
    29    17    12    1
    30    17    19   ar
    31    17    20   ar
    32    18    19   ar
    33    18    22   ar
    34    18    23    1
    35     9    10    1
    36     9    11    1
    37    10    12    1
    38    11     5    1
    39    33    34    1
    40    33    35    1
    41    34    36    1
    42    35    37    1
    43    37    43    1
    44    20    21   ar
    45    21    22   ar
@<TRIPOS>MOLECULE
*****
 43 45 0 0 0
SMALL
GASTEIGER

@<TRIPOS>ATOM
      1 P          23.5236   73.5663   -4.1439 P.3     1  UNL1        0.2189
      2 O          22.7368   74.9497   -4.4371 O.co2   1  UNL1       -0.4371
      3 O          25.0156   73.6945   -4.0460 O.2     1  UNL1       -0.5170
      4 O          22.9784   72.5593   -5.2870 O.3     1  UNL1       -0.3112
      5 C          21.5844   72.3288   -5.3759 C.3     1  UNL1        0.1811
      6 O          20.5251   70.3713   -6.2837 O.3     1  UNL1       -0.3308
      7 O          20.6734   71.7513   -8.9417 O.3     1  UNL1       -0.3794
      8 O          18.0777   72.1500   -8.2074 O.3     1  UNL1       -0.3779
      9 C          20.4386   72.3062   -7.6473 C.3     1  UNL1        0.1713
     10 C          19.0351   71.9788   -7.1834 C.3     1  UNL1        0.1895
     11 C          21.2920   71.5400   -6.6459 C.3     1  UNL1        0.1764
     12 C          19.1760   70.5293   -6.7509 C.3     1  UNL1        0.2383
     13 H          20.1387   72.2247   -9.5987 H       1  UNL1        0.2105
     14 H          18.0251   73.0889   -8.4472 H       1  UNL1        0.2106
     15 O          16.4815   69.7759   -7.1368 O.2     1  UNL1       -0.2464
     16 O          15.7977   69.2227   -2.6123 O.2     1  UNL1       -0.2670
     17 N          18.2713   70.1832   -5.6913 N.ar    1  UNL1       -0.2551
     18 N          16.1432   69.5021   -4.8829 N.ar    1  UNL1       -0.2743
     19 C          16.9376   69.8191   -5.9926 C.ar    1  UNL1        0.3323
     20 C          18.7075   70.2048   -4.3722 C.ar    1  UNL1        0.0869
     21 C          17.9387   69.8999   -3.3250 C.ar    1  UNL1        0.0795
     22 C          16.5319   69.5097   -3.5530 C.ar    1  UNL1        0.2626
     23 H          15.2103   69.2475   -5.0675 H       1  UNL1        0.1734
     24 O          22.8057   73.0175   -2.8037 O.3     1  UNL1       -0.2703
     25 P          22.8597   71.5690   -2.0876 P.3     1  UNL1        0.2208
     26 O          24.1986   70.9010   -2.7051 O.co2   1  UNL1       -0.4371
     27 O          21.6175   70.7457   -2.2691 O.2     1  UNL1       -0.5170
     28 O          23.2343   71.8859   -0.5508 O.3     1  UNL1       -0.2858
     29 O          24.6260   70.8724    1.0756 O.3     1  UNL1       -0.3226
     30 O          21.3256   71.9208    3.3287 O.3     1  UNL1       -0.3794
     31 O          20.9946   70.7704    0.6639 O.3     1  UNL1       -0.3775
     32 O          23.7739   73.4771    3.5152 O.3     1  UNL1       -0.3792
     33 C          22.2788   72.0525    2.2742 C.3     1  UNL1        0.1718
     34 C          22.2246   70.8151    1.3779 C.3     1  UNL1        0.1968
     35 C          23.6660   72.1923    2.9052 C.3     1  UNL1        0.1723
     36 C          23.3815   70.8130    0.3776 C.3     1  UNL1        0.2706
     37 C          24.7697   72.0540    1.8607 C.3     1  UNL1        0.1830
     38 H          20.4363   71.8305    2.9516 H       1  UNL1        0.2105
     39 H          20.2562   70.7718    1.2924 H       1  UNL1        0.2106
     40 H          23.0769   73.5780    4.1821 H       1  UNL1        0.2106
     41 O          26.4738   72.9855    3.1759 O.co2   1  UNL1       -0.5466
     42 O          26.7619   70.8367    2.4696 O.co2   1  UNL1       -0.5466
     43 C          26.0988   71.8620    2.5156 C.2     1  UNL1        0.0799
@<TRIPOS>UNITY_ATOM_ATTR
2 1
charge -1
26 1
charge -1
41 1
charge -1
@<TRIPOS>BOND
     1     1     4    1
     2     1    24    1
     3     1     2    1
     4     1     3    2
     5    25    28    1
     6    25    24    1
     7    25    26    1
     8    25    27    2
     9     6    11    1
    10     6    12    1
    11    29    36    1
    12    29    37    1
    13     7     9    1
    14     7    13    1
    15     8    10    1
    16     8    14    1
    17     4     5    1
    18    28    36    1
    19    30    33    1
    20    30    38    1
    21    31    34    1
    22    31    39    1
    23    32    35    1
    24    32    40    1
    25    41    43   ar
    26    15    19    2
    27    42    43   ar
    28    16    22    2
    29    17    12    1
    30    17    19   ar
    31    17    20   ar
    32    18    19   ar
    33    18    22   ar
    34    18    23    1
    35     9    10    1
    36     9    11    1
    37    10    12    1
    38    11     5    1
    39    33    34    1
    40    33    35    1
    41    34    36    1
    42    35    37    1
    43    37    43    1
    44    20    21   ar
    45    21    22   ar
@<TRIPOS>MOLECULE
*****
 43 45 0 0 0
SMALL
GASTEIGER

@<TRIPOS>ATOM
      1 P          23.6335   72.5339   -3.3241 P.3     1  UNL1        0.2189
      2 O          24.7801   73.6035   -3.7247 O.co2   1  UNL1       -0.4371
      3 O          24.1049   71.1142   -3.2062 O.2     1  UNL1       -0.5170
      4 O          22.4610   72.7972   -4.4076 O.3     1  UNL1       -0.3112
      5 C          21.9794   71.7006   -5.1626 C.3     1  UNL1        0.1811
      6 O          20.7275   71.2228   -7.1581 O.3     1  UNL1       -0.3308
      7 O          21.1095   74.1114   -7.8662 O.3     1  UNL1       -0.3794
      8 O          18.5573   74.0656   -6.9068 O.3     1  UNL1       -0.3779
      9 C          20.9037   73.5145   -6.5856 C.3     1  UNL1        0.1713
     10 C          19.4592   73.0878   -6.4323 C.3     1  UNL1        0.1895
     11 C          21.6342   72.1788   -6.5671 C.3     1  UNL1        0.1764
     12 C          19.4194   71.8090   -7.2515 C.3     1  UNL1        0.2383
     13 H          20.6519   74.9664   -7.9021 H       1  UNL1        0.2105
     14 H          18.6204   74.8597   -6.3523 H       1  UNL1        0.2106
     15 O          17.5149   70.4847   -8.8625 O.2     1  UNL1       -0.2464
     16 O          15.7533   68.2326   -5.2475 O.2     1  UNL1       -0.2670
     17 N          18.4512   70.8715   -6.7572 N.ar    1  UNL1       -0.2551
     18 N          16.6387   69.3651   -7.0603 N.ar    1  UNL1       -0.2743
     19 C          17.5389   70.2618   -7.6506 C.ar    1  UNL1        0.3323
     20 C          18.4128   70.5631   -5.4028 C.ar    1  UNL1        0.0869
     21 C          17.5490   69.7062   -4.8549 C.ar    1  UNL1        0.0795
     22 C          16.5615   69.0268   -5.7190 C.ar    1  UNL1        0.2626
     23 H          15.9924   68.9297   -7.6620 H       1  UNL1        0.1734
     24 O          23.0178   73.1541   -1.9643 O.3     1  UNL1       -0.2703
     25 P          21.5146   73.1250   -1.3700 P.3     1  UNL1        0.2208
     26 O          21.0208   71.6163   -1.6868 O.co2   1  UNL1       -0.4371
     27 O          20.6160   74.1971   -1.9152 O.2     1  UNL1       -0.5170
     28 O          21.7068   73.1628    0.2312 O.3     1  UNL1       -0.2858
     29 O          22.6354   71.1360    1.0305 O.3     1  UNL1       -0.3226
     30 O          21.8766   73.1591    4.5517 O.3     1  UNL1       -0.3794
     31 O          19.9317   73.1990    2.3722 O.3     1  UNL1       -0.3775
     32 O          24.5954   72.9546    3.5431 O.3     1  UNL1       -0.3792
     33 C          22.2160   73.0279    3.1713 C.3     1  UNL1        0.1718
     34 C          21.0692   72.3459    2.4249 C.3     1  UNL1        0.1968
     35 C          23.4895   72.1847    3.0755 C.3     1  UNL1        0.1723
     36 C          21.4848   71.9813    0.9990 C.3     1  UNL1        0.2706
     37 C          23.7669   71.7559    1.6375 C.3     1  UNL1        0.1830
     38 H          21.0700   73.6915    4.6373 H       1  UNL1        0.2105
     39 H          19.6627   73.4346    3.2736 H       1  UNL1        0.2106
     40 H          24.4314   73.2339    4.4574 H       1  UNL1        0.2106
     41 O          24.8809   70.0439    2.7906 O.co2   1  UNL1       -0.5466
     42 O          25.4861   70.4018    0.6216 O.co2   1  UNL1       -0.5466
     43 C          24.8021   70.6795    1.5953 C.2     1  UNL1        0.0799
@<TRIPOS>UNITY_ATOM_ATTR
2 1
charge -1
26 1
charge -1
41 1
charge -1
@<TRIPOS>BOND
     1     1     4    1
     2     1    24    1
     3     1     2    1
     4     1     3    2
     5    25    28    1
     6    25    24    1
     7    25    26    1
     8    25    27    2
     9     6    11    1
    10     6    12    1
    11    29    36    1
    12    29    37    1
    13     7     9    1
    14     7    13    1
    15     8    10    1
    16     8    14    1
    17     4     5    1
    18    28    36    1
    19    30    33    1
    20    30    38    1
    21    31    34    1
    22    31    39    1
    23    32    35    1
    24    32    40    1
    25    41    43   ar
    26    15    19    2
    27    42    43   ar
    28    16    22    2
    29    17    12    1
    30    17    19   ar
    31    17    20   ar
    32    18    19   ar
    33    18    22   ar
    34    18    23    1
    35     9    10    1
    36     9    11    1
    37    10    12    1
    38    11     5    1
    39    33    34    1
    40    33    35    1
    41    34    36    1
    42    35    37    1
    43    37    43    1
    44    20    21   ar
    45    21    22   ar
@<TRIPOS>MOLECULE
*****
 43 45 0 0 0
SMALL
GASTEIGER

@<TRIPOS>ATOM
      1 P          20.1500   71.9141   -1.7385 P.3     1  UNL1        0.2189
      2 O          20.3714   70.6855   -0.7087 O.co2   1  UNL1       -0.4371
      3 O          18.9222   72.7389   -1.4861 O.2     1  UNL1       -0.5170
      4 O          20.2425   71.2198   -3.1971 O.3     1  UNL1       -0.3112
      5 C          19.4183   70.1007   -3.4667 C.3     1  UNL1        0.1811
      6 O          17.7807   71.3041   -4.7505 O.3     1  UNL1       -0.3308
      7 O          15.7170   69.8782   -3.1076 O.3     1  UNL1       -0.3794
      8 O          15.7068   68.4613   -5.4375 O.3     1  UNL1       -0.3779
      9 C          16.9746   69.4036   -3.5889 C.3     1  UNL1        0.1713
     10 C          16.8972   69.1299   -5.0760 C.3     1  UNL1        0.1895
     11 C          17.9663   70.5573   -3.5285 C.3     1  UNL1        0.1764
     12 C          16.9816   70.5302   -5.6592 C.3     1  UNL1        0.2383
     13 H          15.0668   69.1584   -3.1366 H       1  UNL1        0.2105
     14 H          15.7010   67.5750   -5.0421 H       1  UNL1        0.2106
     15 O          15.5755   70.3097   -8.0986 O.2     1  UNL1       -0.2464
     16 O          19.4535   70.6096  -10.5715 O.2     1  UNL1       -0.2670
     17 N          17.5989   70.5477   -6.9551 N.ar    1  UNL1       -0.2551
     18 N          17.5084   70.4583   -9.3279 N.ar    1  UNL1       -0.2743
     19 C          16.8019   70.4299   -8.1183 C.ar    1  UNL1        0.3323
     20 C          18.9776   70.6820   -7.0648 C.ar    1  UNL1        0.0869
     21 C          19.6368   70.7075   -8.2248 C.ar    1  UNL1        0.0795
     22 C          18.8784   70.5893   -9.4875 C.ar    1  UNL1        0.2626
     23 H          16.9751   70.3758  -10.1514 H       1  UNL1        0.1734
     24 O          21.5419   72.7294   -1.6352 O.3     1  UNL1       -0.2703
     25 P          22.8824   72.4371   -0.7800 P.3     1  UNL1        0.2208
     26 O          23.8138   73.7213   -1.1018 O.co2   1  UNL1       -0.4371
     27 O          23.5275   71.1148   -1.0791 O.2     1  UNL1       -0.5170
     28 O          22.4372   72.6321    0.7582 O.3     1  UNL1       -0.2858
     29 O          24.1058   71.4465    1.9495 O.3     1  UNL1       -0.3226
     30 O          22.0159   73.2644    5.0147 O.3     1  UNL1       -0.3794
     31 O          20.5950   72.0627    2.7628 O.3     1  UNL1       -0.3775
     32 O          24.6087   74.2982    4.2027 O.3     1  UNL1       -0.3792
     33 C          22.5557   73.1423    3.6988 C.3     1  UNL1        0.1718
     34 C          21.9835   71.8950    3.0246 C.3     1  UNL1        0.1968
     35 C          24.0772   73.0311    3.8202 C.3     1  UNL1        0.1723
     36 C          22.7069   71.6036    1.7091 C.3     1  UNL1        0.2706
     37 C          24.7127   72.6149    2.4968 C.3     1  UNL1        0.1830
     38 H          21.0498   73.3365    4.9627 H       1  UNL1        0.2105
     39 H          20.1299   72.2482    3.5932 H       1  UNL1        0.2106
     40 H          24.2122   74.5747    5.0436 H       1  UNL1        0.2106
     41 O          26.8606   73.2039    3.2325 O.co2   1  UNL1       -0.5466
     42 O          26.5805   71.0892    2.4272 O.co2   1  UNL1       -0.5466
     43 C          26.1315   72.1925    2.6993 C.2     1  UNL1        0.0799
@<TRIPOS>UNITY_ATOM_ATTR
2 1
charge -1
26 1
charge -1
41 1
charge -1
@<TRIPOS>BOND
     1     1     4    1
     2     1    24    1
     3     1     2    1
     4     1     3    2
     5    25    28    1
     6    25    24    1
     7    25    26    1
     8    25    27    2
     9     6    11    1
    10     6    12    1
    11    29    36    1
    12    29    37    1
    13     7     9    1
    14     7    13    1
    15     8    10    1
    16     8    14    1
    17     4     5    1
    18    28    36    1
    19    30    33    1
    20    30    38    1
    21    31    34    1
    22    31    39    1
    23    32    35    1
    24    32    40    1
    25    41    43   ar
    26    15    19    2
    27    42    43   ar
    28    16    22    2
    29    17    12    1
    30    17    19   ar
    31    17    20   ar
    32    18    19   ar
    33    18    22   ar
    34    18    23    1
    35     9    10    1
    36     9    11    1
    37    10    12    1
    38    11     5    1
    39    33    34    1
    40    33    35    1
    41    34    36    1
    42    35    37    1
    43    37    43    1
    44    20    21   ar
    45    21    22   ar
@<TRIPOS>MOLECULE
*****
 43 45 0 0 0
SMALL
GASTEIGER

@<TRIPOS>ATOM
      1 P          20.7441   71.1914   -2.1007 P.3     1  UNL1        0.2189
      2 O          22.0980   70.5107   -2.6687 O.co2   1  UNL1       -0.4371
      3 O          20.2992   70.6918   -0.7575 O.2     1  UNL1       -0.5170
      4 O          19.6811   71.0068   -3.3064 O.3     1  UNL1       -0.3112
      5 C          18.9764   72.1453   -3.7668 C.3     1  UNL1        0.1811
      6 O          17.0950   71.9765   -5.2532 O.3     1  UNL1       -0.3308
      7 O          15.8170   70.2727   -3.1424 O.3     1  UNL1       -0.3794
      8 O          16.7098   68.4258   -4.9391 O.3     1  UNL1       -0.3779
      9 C          17.1881   70.3509   -3.5328 C.3     1  UNL1        0.1713
     10 C          17.3945   69.6587   -4.8635 C.3     1  UNL1        0.1895
     11 C          17.4965   71.8016   -3.8771 C.3     1  UNL1        0.1764
     12 C          16.8548   70.6883   -5.8416 C.3     1  UNL1        0.2383
     13 H          15.5964   69.3548   -2.9176 H       1  UNL1        0.2105
     14 H          17.0905   67.8047   -4.2977 H       1  UNL1        0.2106
     15 O          15.5097   70.6431   -8.3245 O.2     1  UNL1       -0.2464
     16 O          19.4708   70.4570  -10.6738 O.2     1  UNL1       -0.2670
     17 N          17.5100   70.6282   -7.1175 N.ar    1  UNL1       -0.2551
     18 N          17.4838   70.5494   -9.4922 N.ar    1  UNL1       -0.2743
     19 C          16.7416   70.6098   -8.3054 C.ar    1  UNL1        0.3323
     20 C          18.8975   70.5899   -7.1835 C.ar    1  UNL1        0.0869
     21 C          19.5909   70.5326   -8.3222 C.ar    1  UNL1        0.0795
     22 C          18.8639   70.5090   -9.6084 C.ar    1  UNL1        0.2626
     23 H          16.9707   70.5335  -10.3323 H       1  UNL1        0.1734
     24 O          21.0825   72.7711   -2.1533 O.3     1  UNL1       -0.2703
     25 P          21.1768   73.8762   -0.9770 P.3     1  UNL1        0.2208
     26 O          19.6667   73.9280   -0.3963 O.co2   1  UNL1       -0.4371
     27 O          21.7140   75.2054   -1.4224 O.2     1  UNL1       -0.5170
     28 O          22.0363   73.1627    0.1869 O.3     1  UNL1       -0.2858
     29 O          24.1989   74.0808    0.4865 O.3     1  UNL1       -0.3226
     30 O          24.3729   70.7200    2.8830 O.3     1  UNL1       -0.3794
     31 O          23.1113   70.5982    0.2509 O.3     1  UNL1       -0.3775
     32 O          24.0760   73.3523    4.0805 O.3     1  UNL1       -0.3792
     33 C          23.7486   71.8315    2.2406 C.3     1  UNL1        0.1718
     34 C          23.8890   71.6915    0.7246 C.3     1  UNL1        0.1968
     35 C          24.4418   73.1075    2.7237 C.3     1  UNL1        0.1723
     36 C          23.4388   72.9683    0.0132 C.3     1  UNL1        0.2706
     37 C          24.0352   74.3147    1.8835 C.3     1  UNL1        0.1830
     38 H          23.9488   69.8976    2.5911 H       1  UNL1        0.2105
     39 H          23.3915   69.7848    0.6983 H       1  UNL1        0.2106
     40 H          24.3292   72.5912    4.6260 H       1  UNL1        0.2106
     41 O          24.6631   76.0491    3.3323 O.co2   1  UNL1       -0.5466
     42 O          25.8308   75.8470    1.3843 O.co2   1  UNL1       -0.5466
     43 C          24.9470   75.4703    2.1393 C.2     1  UNL1        0.0799
@<TRIPOS>UNITY_ATOM_ATTR
2 1
charge -1
26 1
charge -1
41 1
charge -1
@<TRIPOS>BOND
     1     1     4    1
     2     1    24    1
     3     1     2    1
     4     1     3    2
     5    25    28    1
     6    25    24    1
     7    25    26    1
     8    25    27    2
     9     6    11    1
    10     6    12    1
    11    29    36    1
    12    29    37    1
    13     7     9    1
    14     7    13    1
    15     8    10    1
    16     8    14    1
    17     4     5    1
    18    28    36    1
    19    30    33    1
    20    30    38    1
    21    31    34    1
    22    31    39    1
    23    32    35    1
    24    32    40    1
    25    41    43   ar
    26    15    19    2
    27    42    43   ar
    28    16    22    2
    29    17    12    1
    30    17    19   ar
    31    17    20   ar
    32    18    19   ar
    33    18    22   ar
    34    18    23    1
    35     9    10    1
    36     9    11    1
    37    10    12    1
    38    11     5    1
    39    33    34    1
    40    33    35    1
    41    34    36    1
    42    35    37    1
    43    37    43    1
    44    20    21   ar
    45    21    22   ar
@<TRIPOS>MOLECULE
*****
 43 45 0 0 0
SMALL
GASTEIGER

@<TRIPOS>ATOM
      1 P          22.9461   72.5433   -3.6274 P.3     1  UNL1        0.2189
      2 O          22.4808   71.0279   -3.3022 O.co2   1  UNL1       -0.4371
      3 O          24.3226   72.6720   -4.2108 O.2     1  UNL1       -0.5170
      4 O          22.6953   73.3334   -2.2378 O.3     1  UNL1       -0.3112
      5 C          21.7247   74.3637   -2.2115 C.3     1  UNL1        0.1811
      6 O          20.9405   72.7072   -0.6564 O.3     1  UNL1       -0.3308
      7 O          18.8770   74.7225    0.1634 O.3     1  UNL1       -0.3794
      8 O          20.7314   74.9256    2.1524 O.3     1  UNL1       -0.3779
      9 C          20.2348   74.9273   -0.2278 C.3     1  UNL1        0.1713
     10 C          21.1707   74.4952    0.8810 C.3     1  UNL1        0.1895
     11 C          20.5623   73.9279   -1.3288 C.3     1  UNL1        0.1764
     12 C          21.1529   72.9829    0.7372 C.3     1  UNL1        0.2383
     13 H          18.6446   75.3500    0.8662 H       1  UNL1        0.2105
     14 H          20.7614   75.8948    2.1938 H       1  UNL1        0.2106
     15 O          21.5202   70.2096    1.1250 O.2     1  UNL1       -0.2464
     16 O          25.9352   70.7765    2.3210 O.2     1  UNL1       -0.2670
     17 N          22.3880   72.3787    1.1498 N.ar    1  UNL1       -0.2551
     18 N          23.7185   70.4947    1.7213 N.ar    1  UNL1       -0.2743
     19 C          22.4667   70.9757    1.3157 C.ar    1  UNL1        0.3323
     20 C          23.5043   73.1724    1.3837 C.ar    1  UNL1        0.0869
     21 C          24.6909   72.6995    1.7698 C.ar    1  UNL1        0.0795
     22 C          24.8574   71.2445    1.9669 C.ar    1  UNL1        0.2626
     23 H          23.7972   69.5212    1.8455 H       1  UNL1        0.1734
     24 O          21.7584   73.0919   -4.5767 O.3     1  UNL1       -0.2703
     25 P          21.6546   73.2102   -6.1857 P.3     1  UNL1        0.2208
     26 O          22.8469   72.2464   -6.7052 O.co2   1  UNL1       -0.4371
     27 O          21.7256   74.6168   -6.7056 O.2     1  UNL1       -0.5170
     28 O          20.2992   72.4230   -6.5674 O.3     1  UNL1       -0.2858
     29 O          19.8293   70.2493   -5.7529 O.3     1  UNL1       -0.3226
     30 O          17.3616   70.4597   -9.0596 O.3     1  UNL1       -0.3794
     31 O          20.0911   71.4937   -9.1807 O.3     1  UNL1       -0.3775
     32 O          16.2464   70.7205   -6.3876 O.3     1  UNL1       -0.3792
     33 C          18.0778   70.9670   -7.9337 C.3     1  UNL1        0.1718
     34 C          19.5726   70.7035   -8.1170 C.3     1  UNL1        0.1968
     35 C          17.5608   70.2522   -6.6832 C.3     1  UNL1        0.1723
     36 C          20.3455   71.0230   -6.8366 C.3     1  UNL1        0.2706
     37 C          18.4569   70.5207   -5.4775 C.3     1  UNL1        0.1830
     38 H          17.6733   70.8995   -9.8662 H       1  UNL1        0.2105
     39 H          19.6051   71.2963   -9.9963 H       1  UNL1        0.2106
     40 H          15.6660   70.5558   -7.1471 H       1  UNL1        0.2106
     41 O          19.1984   69.4692   -3.5164 O.co2   1  UNL1       -0.5466
     42 O          17.0881   68.9772   -4.2262 O.co2   1  UNL1       -0.5466
     43 C          18.1449   69.5750   -4.3637 C.2     1  UNL1        0.0799
@<TRIPOS>UNITY_ATOM_ATTR
2 1
charge -1
26 1
charge -1
41 1
charge -1
@<TRIPOS>BOND
     1     1     4    1
     2     1    24    1
     3     1     2    1
     4     1     3    2
     5    25    28    1
     6    25    24    1
     7    25    26    1
     8    25    27    2
     9     6    11    1
    10     6    12    1
    11    29    36    1
    12    29    37    1
    13     7     9    1
    14     7    13    1
    15     8    10    1
    16     8    14    1
    17     4     5    1
    18    28    36    1
    19    30    33    1
    20    30    38    1
    21    31    34    1
    22    31    39    1
    23    32    35    1
    24    32    40    1
    25    41    43   ar
    26    15    19    2
    27    42    43   ar
    28    16    22    2
    29    17    12    1
    30    17    19   ar
    31    17    20   ar
    32    18    19   ar
    33    18    22   ar
    34    18    23    1
    35     9    10    1
    36     9    11    1
    37    10    12    1
    38    11     5    1
    39    33    34    1
    40    33    35    1
    41    34    36    1
    42    35    37    1
    43    37    43    1
    44    20    21   ar
    45    21    22   ar
@<TRIPOS>MOLECULE
*****
 43 45 0 0 0
SMALL
GASTEIGER

@<TRIPOS>ATOM
      1 P          22.5029   71.1249    0.7031 P.3     1  UNL1        0.2189
      2 O          21.1329   70.2696    0.6002 O.co2   1  UNL1       -0.4371
      3 O          23.4613   70.6615    1.7607 O.2     1  UNL1       -0.5170
      4 O          21.9961   72.6558    0.8362 O.3     1  UNL1       -0.3112
      5 C          22.3629   73.3916    1.9888 C.3     1  UNL1        0.1811
      6 O          22.3443   72.6450    4.2735 O.3     1  UNL1       -0.3308
      7 O          19.4491   73.4248    4.3098 O.3     1  UNL1       -0.3794
      8 O          20.6470   75.5224    5.5751 O.3     1  UNL1       -0.3779
      9 C          20.5452   74.0506    3.6423 C.3     1  UNL1        0.1713
     10 C          21.4112   74.7920    4.6386 C.3     1  UNL1        0.1895
     11 C          21.4853   72.9564    3.1553 C.3     1  UNL1        0.1764
     12 C          22.1949   73.6594    5.2796 C.3     1  UNL1        0.2383
     13 H          18.8346   74.1042    4.6300 H       1  UNL1        0.2105
     14 H          20.1673   76.2316    5.1181 H       1  UNL1        0.2106
     15 O          22.9529   73.9193    7.9878 O.2     1  UNL1       -0.2464
     16 O          27.2149   75.2601    6.8558 O.2     1  UNL1       -0.2670
     17 N          23.4964   74.0746    5.7208 N.ar    1  UNL1       -0.2551
     18 N          25.0746   74.5878    7.4214 N.ar    1  UNL1       -0.2743
     19 C          23.7744   74.1730    7.1047 C.ar    1  UNL1        0.3323
     20 C          24.4810   74.3774    4.7882 C.ar    1  UNL1        0.0869
     21 C          25.7159   74.7714    5.1053 C.ar    1  UNL1        0.0795
     22 C          26.0877   74.9007    6.5296 C.ar    1  UNL1        0.2626
     23 H          25.2912   74.6657    8.3787 H       1  UNL1        0.1734
     24 O          23.0828   71.0640   -0.8045 O.3     1  UNL1       -0.2703
     25 P          22.5746   71.7711   -2.1667 P.3     1  UNL1        0.2208
     26 O          23.3848   70.9761   -3.3207 O.co2   1  UNL1       -0.4371
     27 O          22.7616   73.2605   -2.1941 O.2     1  UNL1       -0.5170
     28 O          21.0455   71.2852   -2.3343 O.3     1  UNL1       -0.2858
     29 O          19.6643   69.6254   -3.3071 O.3     1  UNL1       -0.3226
     30 O          18.1641   73.0748   -5.0156 O.3     1  UNL1       -0.3794
     31 O          21.0468   72.6957   -4.7315 O.3     1  UNL1       -0.3775
     32 O          16.7046   71.7511   -2.8782 O.3     1  UNL1       -0.3792
     33 C          18.7723   72.2845   -3.9941 C.3     1  UNL1        0.1718
     34 C          20.0733   71.6792   -4.5218 C.3     1  UNL1        0.1968
     35 C          17.7899   71.1776   -3.6047 C.3     1  UNL1        0.1723
     36 C          20.6337   70.6474   -3.5419 C.3     1  UNL1        0.2706
     37 C          18.4588   70.1216   -2.7295 C.3     1  UNL1        0.1830
     38 H          18.7702   73.7849   -5.2792 H       1  UNL1        0.2105
     39 H          20.6977   73.3540   -5.3521 H       1  UNL1        0.2106
     40 H          16.2703   72.4250   -3.4241 H       1  UNL1        0.2106
     41 O          18.0879   67.9130   -3.4267 O.co2   1  UNL1       -0.5466
     42 O          16.6131   68.7915   -1.9259 O.co2   1  UNL1       -0.5466
     43 C          17.6067   68.8985   -2.6291 C.2     1  UNL1        0.0799
@<TRIPOS>UNITY_ATOM_ATTR
2 1
charge -1
26 1
charge -1
41 1
charge -1
@<TRIPOS>BOND
     1     1     4    1
     2     1    24    1
     3     1     2    1
     4     1     3    2
     5    25    28    1
     6    25    24    1
     7    25    26    1
     8    25    27    2
     9     6    11    1
    10     6    12    1
    11    29    36    1
    12    29    37    1
    13     7     9    1
    14     7    13    1
    15     8    10    1
    16     8    14    1
    17     4     5    1
    18    28    36    1
    19    30    33    1
    20    30    38    1
    21    31    34    1
    22    31    39    1
    23    32    35    1
    24    32    40    1
    25    41    43   ar
    26    15    19    2
    27    42    43   ar
    28    16    22    2
    29    17    12    1
    30    17    19   ar
    31    17    20   ar
    32    18    19   ar
    33    18    22   ar
    34    18    23    1
    35     9    10    1
    36     9    11    1
    37    10    12    1
    38    11     5    1
    39    33    34    1
    40    33    35    1
    41    34    36    1
    42    35    37    1
    43    37    43    1
    44    20    21   ar
    45    21    22   ar
@<TRIPOS>MOLECULE
*****
 43 45 0 0 0
SMALL
GASTEIGER

@<TRIPOS>ATOM
      1 P          23.3557   71.9852   -3.3581 P.3     1  UNL1        0.2189
      2 O          24.2497   72.9143   -4.3359 O.co2   1  UNL1       -0.4371
      3 O          24.1272   70.9650   -2.5734 O.2     1  UNL1       -0.5170
      4 O          22.2007   71.3992   -4.3279 O.3     1  UNL1       -0.3112
      5 C          21.5706   72.2814   -5.2385 C.3     1  UNL1        0.1811
      6 O          20.4763   70.3675   -6.1965 O.3     1  UNL1       -0.3308
      7 O          20.6597   71.8086   -8.8197 O.3     1  UNL1       -0.3794
      8 O          18.0699   72.2397   -8.0827 O.3     1  UNL1       -0.3779
      9 C          20.4317   72.3363   -7.5128 C.3     1  UNL1        0.1713
     10 C          19.0206   72.0251   -7.0607 C.3     1  UNL1        0.1895
     11 C          21.2670   71.5296   -6.5281 C.3     1  UNL1        0.1764
     12 C          19.1320   70.5631   -6.6633 C.3     1  UNL1        0.2383
     13 H          20.1363   72.3082   -9.4664 H       1  UNL1        0.2105
     14 H          18.0363   73.1851   -8.2997 H       1  UNL1        0.2106
     15 O          16.4420   69.8104   -7.0801 O.2     1  UNL1       -0.2464
     16 O          15.7153   69.2254   -2.5664 O.2     1  UNL1       -0.2670
     17 N          18.2175   70.2090   -5.6148 N.ar    1  UNL1       -0.2551
     18 N          16.0824   69.5208   -4.8315 N.ar    1  UNL1       -0.2743
     19 C          16.8871   69.8460   -5.9314 C.ar    1  UNL1        0.3323
     20 C          18.6411   70.2218   -4.2914 C.ar    1  UNL1        0.0869
     21 C          17.8625   69.9091   -3.2537 C.ar    1  UNL1        0.0795
     22 C          16.4582   69.5195   -3.4980 C.ar    1  UNL1        0.2626
     23 H          15.1514   69.2668   -5.0268 H       1  UNL1        0.1734
     24 O          22.5600   73.0664   -2.4576 O.3     1  UNL1       -0.2703
     25 P          23.0980   74.2015   -1.4399 P.3     1  UNL1        0.2208
     26 O          22.0838   75.4372   -1.6946 O.co2   1  UNL1       -0.4371
     27 O          24.5488   74.5464   -1.6133 O.2     1  UNL1       -0.5170
     28 O          22.7109   73.6528    0.0269 O.3     1  UNL1       -0.2858
     29 O          23.5300   71.5634    0.7838 O.3     1  UNL1       -0.3226
     30 O          20.3662   72.2096    3.3608 O.3     1  UNL1       -0.3794
     31 O          20.1046   72.8128    0.5144 O.3     1  UNL1       -0.3775
     32 O          23.0978   72.5920    4.2791 O.3     1  UNL1       -0.3792
     33 C          21.4557   72.5806    2.5161 C.3     1  UNL1        0.1718
     34 C          21.1879   72.0933    1.0919 C.3     1  UNL1        0.1968
     35 C          22.7261   71.9320    3.0705 C.3     1  UNL1        0.1723
     36 C          22.4267   72.2673    0.2121 C.3     1  UNL1        0.2706
     37 C          23.8830   72.0380    2.0811 C.3     1  UNL1        0.1830
     38 H          19.5478   72.6103    3.0279 H       1  UNL1        0.2105
     39 H          19.3153   72.7070    1.0676 H       1  UNL1        0.2106
     40 H          22.3699   72.5320    4.9174 H       1  UNL1        0.2106
     41 O          26.1600   71.8289    2.6039 O.co2   1  UNL1       -0.5466
     42 O          24.9004   69.9291    2.6632 O.co2   1  UNL1       -0.5466
     43 C          25.0036   71.1322    2.4763 C.2     1  UNL1        0.0799
@<TRIPOS>UNITY_ATOM_ATTR
2 1
charge -1
26 1
charge -1
41 1
charge -1
@<TRIPOS>BOND
     1     1     4    1
     2     1    24    1
     3     1     2    1
     4     1     3    2
     5    25    28    1
     6    25    24    1
     7    25    26    1
     8    25    27    2
     9     6    11    1
    10     6    12    1
    11    29    36    1
    12    29    37    1
    13     7     9    1
    14     7    13    1
    15     8    10    1
    16     8    14    1
    17     4     5    1
    18    28    36    1
    19    30    33    1
    20    30    38    1
    21    31    34    1
    22    31    39    1
    23    32    35    1
    24    32    40    1
    25    41    43   ar
    26    15    19    2
    27    42    43   ar
    28    16    22    2
    29    17    12    1
    30    17    19   ar
    31    17    20   ar
    32    18    19   ar
    33    18    22   ar
    34    18    23    1
    35     9    10    1
    36     9    11    1
    37    10    12    1
    38    11     5    1
    39    33    34    1
    40    33    35    1
    41    34    36    1
    42    35    37    1
    43    37    43    1
    44    20    21   ar
    45    21    22   ar
@<TRIPOS>MOLECULE
*****
 43 45 0 0 0
SMALL
GASTEIGER

@<TRIPOS>ATOM
      1 P          22.4437   72.3270   -2.0491 P.3     1  UNL1        0.2189
      2 O          22.7701   73.8549   -2.4706 O.co2   1  UNL1       -0.4371
      3 O          23.3955   71.3024   -2.5933 O.2     1  UNL1       -0.5170
      4 O          20.8913   72.1331   -2.4619 O.3     1  UNL1       -0.3112
      5 C          20.4987   72.4505   -3.7846 C.3     1  UNL1        0.1811
      6 O          20.7559   70.7847   -5.4982 O.3     1  UNL1       -0.3308
      7 O          23.2556   72.2438   -6.2817 O.3     1  UNL1       -0.3794
      8 O          21.4573   73.1001   -8.1441 O.3     1  UNL1       -0.3779
      9 C          22.0168   72.7668   -5.8015 C.3     1  UNL1        0.1713
     10 C          20.9621   72.6944   -6.8853 C.3     1  UNL1        0.1895
     11 C          21.4706   71.7995   -4.7603 C.3     1  UNL1        0.1764
     12 C          20.5780   71.2249   -6.8539 C.3     1  UNL1        0.2383
     13 H          23.6240   72.8450   -6.9485 H       1  UNL1        0.2105
     14 H          21.6873   74.0425   -8.1127 H       1  UNL1        0.2106
     15 O          19.7057   70.9146   -9.5221 O.2     1  UNL1       -0.2464
     16 O          15.3155   70.3940   -8.2188 O.2     1  UNL1       -0.2670
     17 N          19.2127   71.0070   -7.2403 N.ar    1  UNL1       -0.2551
     18 N          17.5198   70.6566   -8.8705 N.ar    1  UNL1       -0.2743
     19 C          18.8804   70.8642   -8.6082 C.ar    1  UNL1        0.3323
     20 C          18.2204   70.9352   -6.2701 C.ar    1  UNL1        0.0869
     21 C          16.9277   70.7368   -6.5355 C.ar    1  UNL1        0.0795
     22 C          16.4963   70.5784   -7.9399 C.ar    1  UNL1        0.2626
     23 H          17.2638   70.5563   -9.8159 H       1  UNL1        0.1734
     24 O          22.3841   72.4006   -0.4354 O.3     1  UNL1       -0.2703
     25 P          21.9513   71.2954    0.6623 P.3     1  UNL1        0.2208
     26 O          23.3503   70.5659    1.0242 O.co2   1  UNL1       -0.4371
     27 O          20.8683   70.3626    0.2031 O.2     1  UNL1       -0.5170
     28 O          21.5846   72.1497    1.9807 O.3     1  UNL1       -0.2858
     29 O          21.4176   74.4826    2.3534 O.3     1  UNL1       -0.3226
     30 O          22.9233   73.1598    5.9660 O.3     1  UNL1       -0.3794
     31 O          23.9444   72.0792    3.4512 O.3     1  UNL1       -0.3775
     32 O          20.1239   73.9101    5.7388 O.3     1  UNL1       -0.3792
     33 C          22.1614   73.0738    4.7618 C.3     1  UNL1        0.1718
     34 C          23.0916   73.2134    3.5566 C.3     1  UNL1        0.1968
     35 C          21.1308   74.2051    4.7725 C.3     1  UNL1        0.1723
     36 C          22.2912   73.3567    2.2613 C.3     1  UNL1        0.2706
     37 C          20.4657   74.3656    3.4085 C.3     1  UNL1        0.1830
     38 H          23.5850   72.4505    5.9815 H       1  UNL1        0.2105
     39 H          24.4551   71.9820    4.2698 H       1  UNL1        0.2106
     40 H          20.5341   73.8053    6.6115 H       1  UNL1        0.2106
     41 O          18.9769   75.7143    2.1976 O.co2   1  UNL1       -0.5466
     42 O          19.7629   76.5444    4.1705 O.co2   1  UNL1       -0.5466
     43 C          19.7188   75.6574    3.3313 C.2     1  UNL1        0.0799
@<TRIPOS>UNITY_ATOM_ATTR
2 1
charge -1
26 1
charge -1
41 1
charge -1
@<TRIPOS>BOND
     1     1     4    1
     2     1    24    1
     3     1     2    1
     4     1     3    2
     5    25    28    1
     6    25    24    1
     7    25    26    1
     8    25    27    2
     9     6    11    1
    10     6    12    1
    11    29    36    1
    12    29    37    1
    13     7     9    1
    14     7    13    1
    15     8    10    1
    16     8    14    1
    17     4     5    1
    18    28    36    1
    19    30    33    1
    20    30    38    1
    21    31    34    1
    22    31    39    1
    23    32    35    1
    24    32    40    1
    25    41    43   ar
    26    15    19    2
    27    42    43   ar
    28    16    22    2
    29    17    12    1
    30    17    19   ar
    31    17    20   ar
    32    18    19   ar
    33    18    22   ar
    34    18    23    1
    35     9    10    1
    36     9    11    1
    37    10    12    1
    38    11     5    1
    39    33    34    1
    40    33    35    1
    41    34    36    1
    42    35    37    1
    43    37    43    1
    44    20    21   ar
    45    21    22   ar
@<TRIPOS>MOLECULE
*****
 43 45 0 0 0
SMALL
GASTEIGER

@<TRIPOS>ATOM
      1 P          21.5310   73.9889   -2.7177 P.3     1  UNL1        0.2189
      2 O          21.4286   75.5919   -2.5205 O.co2   1  UNL1       -0.4371
      3 O          20.2819   73.2282   -2.3820 O.2     1  UNL1       -0.5170
      4 O          22.8513   73.5778   -1.8776 O.3     1  UNL1       -0.3112
      5 C          22.8189   73.6951   -0.4671 C.3     1  UNL1        0.1811
      6 O          23.6435   72.2021    1.2267 O.3     1  UNL1       -0.3308
      7 O          21.1293   70.6252    0.7977 O.3     1  UNL1       -0.3794
      8 O          20.5740   72.0251    3.0710 O.3     1  UNL1       -0.3779
      9 C          21.3271   72.0387    0.7591 C.3     1  UNL1        0.1713
     10 C          21.4999   72.5822    2.1616 C.3     1  UNL1        0.1895
     11 C          22.6940   72.3051    0.1436 C.3     1  UNL1        0.1764
     12 C          22.9345   72.1936    2.4759 C.3     1  UNL1        0.2383
     13 H          20.2622   70.4302    1.1872 H       1  UNL1        0.2105
     14 H          19.6760   72.3019    2.8284 H       1  UNL1        0.2106
     15 O          25.7170   72.6657    2.5823 O.2     1  UNL1       -0.2464
     16 O          25.2488   75.7489    5.9762 O.2     1  UNL1       -0.2670
     17 N          23.5666   73.1145    3.3778 N.ar    1  UNL1       -0.2551
     18 N          25.4812   74.2001    4.2732 N.ar    1  UNL1       -0.2743
     19 C          24.9719   73.2773    3.3502 C.ar    1  UNL1        0.3323
     20 C          22.7971   73.8454    4.2749 C.ar    1  UNL1        0.0869
     21 C          23.2970   74.7214    5.1486 C.ar    1  UNL1        0.0795
     22 C          24.7564   74.9499    5.1853 C.ar    1  UNL1        0.2626
     23 H          26.4573   74.3290    4.2742 H       1  UNL1        0.1734
     24 O          22.0167   73.8425   -4.2525 O.3     1  UNL1       -0.2703
     25 P          22.1838   72.5382   -5.1930 P.3     1  UNL1        0.2208
     26 O          22.7107   71.4052   -4.1640 O.co2   1  UNL1       -0.4371
     27 O          23.0693   72.7492   -6.3869 O.2     1  UNL1       -0.5170
     28 O          20.6743   72.0943   -5.5492 O.3     1  UNL1       -0.2858
     29 O          19.9389   69.9430   -4.8858 O.3     1  UNL1       -0.3226
     30 O          17.0505   71.0059   -7.6417 O.3     1  UNL1       -0.3794
     31 O          19.8698   71.5694   -8.1595 O.3     1  UNL1       -0.3775
     32 O          16.4563   71.0945   -4.7974 O.3     1  UNL1       -0.3792
     33 C          18.0240   71.2303   -6.6220 C.3     1  UNL1        0.1718
     34 C          19.3911   70.7442   -7.1037 C.3     1  UNL1        0.1968
     35 C          17.5916   70.4537   -5.3763 C.3     1  UNL1        0.1723
     36 C          20.4090   70.7551   -5.9624 C.3     1  UNL1        0.2706
     37 C          18.7068   70.4038   -4.3359 C.3     1  UNL1        0.1830
     38 H          17.3043   71.4898   -8.4434 H       1  UNL1        0.2105
     39 H          19.2287   71.5673   -8.8870 H       1  UNL1        0.2106
     40 H          15.7392   71.1328   -5.4495 H       1  UNL1        0.2106
     41 O          18.7624   69.8430   -2.0590 O.co2   1  UNL1       -0.5466
     42 O          17.9074   68.2894   -3.4923 O.co2   1  UNL1       -0.5466
     43 C          18.4066   69.3852   -3.2849 C.2     1  UNL1        0.0799
@<TRIPOS>UNITY_ATOM_ATTR
2 1
charge -1
26 1
charge -1
41 1
charge -1
@<TRIPOS>BOND
     1     1     4    1
     2     1    24    1
     3     1     2    1
     4     1     3    2
     5    25    28    1
     6    25    24    1
     7    25    26    1
     8    25    27    2
     9     6    11    1
    10     6    12    1
    11    29    36    1
    12    29    37    1
    13     7     9    1
    14     7    13    1
    15     8    10    1
    16     8    14    1
    17     4     5    1
    18    28    36    1
    19    30    33    1
    20    30    38    1
    21    31    34    1
    22    31    39    1
    23    32    35    1
    24    32    40    1
    25    41    43   ar
    26    15    19    2
    27    42    43   ar
    28    16    22    2
    29    17    12    1
    30    17    19   ar
    31    17    20   ar
    32    18    19   ar
    33    18    22   ar
    34    18    23    1
    35     9    10    1
    36     9    11    1
    37    10    12    1
    38    11     5    1
    39    33    34    1
    40    33    35    1
    41    34    36    1
    42    35    37    1
    43    37    43    1
    44    20    21   ar
    45    21    22   ar
@<TRIPOS>MOLECULE
*****
 43 45 0 0 0
SMALL
GASTEIGER

@<TRIPOS>ATOM
      1 P          21.8613   72.4861   -5.6625 P.3     1  UNL1        0.2189
      2 O          21.2144   73.9255   -5.3039 O.co2   1  UNL1       -0.4371
      3 O          23.0940   72.5405   -6.5164 O.2     1  UNL1       -0.5170
      4 O          20.6213   71.6438   -6.2715 O.3     1  UNL1       -0.3112
      5 C          20.1233   72.0010   -7.5478 C.3     1  UNL1        0.1811
      6 O          18.9184   69.9625   -7.1352 O.3     1  UNL1       -0.3308
      7 O          18.1462   70.0512  -10.0312 O.3     1  UNL1       -0.3794
      8 O          15.9067   70.9874   -8.7885 O.3     1  UNL1       -0.3779
      9 C          18.3132   71.1267   -9.1072 C.3     1  UNL1        0.1713
     10 C          17.1482   71.1737   -8.1414 C.3     1  UNL1        0.1895
     11 C          19.4758   70.7795   -8.1874 C.3     1  UNL1        0.1764
     12 C          17.4851   70.0421   -7.1855 C.3     1  UNL1        0.2383
     13 H          17.4087   70.2502  -10.6297 H       1  UNL1        0.2105
     14 H          15.7380   71.7338   -9.3854 H       1  UNL1        0.2106
     15 O          16.2678   68.0711   -5.5699 O.2     1  UNL1       -0.2464
     16 O          15.5981   71.0527   -2.1194 O.2     1  UNL1       -0.2670
     17 N          16.9836   70.2760   -5.8609 N.ar    1  UNL1       -0.2551
     18 N          15.9345   69.5582   -3.8533 N.ar    1  UNL1       -0.2743
     19 C          16.3895   69.2174   -5.1339 C.ar    1  UNL1        0.3323
     20 C          17.0840   71.5410   -5.2947 C.ar    1  UNL1        0.0869
     21 C          16.6458   71.8506   -4.0728 C.ar    1  UNL1        0.0795
     22 C          16.0115   70.8018   -3.2475 C.ar    1  UNL1        0.2626
     23 H          15.5153   68.8382   -3.3288 H       1  UNL1        0.1734
     24 O          22.0782   71.8135   -4.2087 O.3     1  UNL1       -0.2703
     25 P          23.2895   71.9490   -3.1466 P.3     1  UNL1        0.2208
     26 O          23.9849   73.3523   -3.5558 O.co2   1  UNL1       -0.4371
     27 O          24.2269   70.7764   -3.1287 O.2     1  UNL1       -0.5170
     28 O          22.5657   72.2492   -1.7365 O.3     1  UNL1       -0.2858
     29 O          23.3229   70.8333    0.0046 O.3     1  UNL1       -0.3226
     30 O          20.1873   72.8084    1.8308 O.3     1  UNL1       -0.3794
     31 O          19.9364   71.8554   -0.9193 O.3     1  UNL1       -0.3775
     32 O          22.9318   73.5364    2.4546 O.3     1  UNL1       -0.3792
     33 C          21.2852   72.6576    0.9309 C.3     1  UNL1        0.1718
     34 C          20.9989   71.5101   -0.0380 C.3     1  UNL1        0.1968
     35 C          22.5368   72.3559    1.7582 C.3     1  UNL1        0.1723
     36 C          22.2400   71.1688   -0.8638 C.3     1  UNL1        0.2706
     37 C          23.6937   71.9019    0.8728 C.3     1  UNL1        0.1830
     38 H          19.3805   73.0007    1.3275 H       1  UNL1        0.2105
     39 H          19.1457   72.0735   -0.4020 H       1  UNL1        0.2106
     40 H          22.2041   73.8359    3.0217 H       1  UNL1        0.2106
     41 O          24.6860   69.9497    1.7129 O.co2   1  UNL1       -0.5466
     42 O          25.6582   71.9346    2.2732 O.co2   1  UNL1       -0.5466
     43 C          24.7873   71.3018    1.6952 C.2     1  UNL1        0.0799
@<TRIPOS>UNITY_ATOM_ATTR
2 1
charge -1
26 1
charge -1
41 1
charge -1
@<TRIPOS>BOND
     1     1     4    1
     2     1    24    1
     3     1     2    1
     4     1     3    2
     5    25    28    1
     6    25    24    1
     7    25    26    1
     8    25    27    2
     9     6    11    1
    10     6    12    1
    11    29    36    1
    12    29    37    1
    13     7     9    1
    14     7    13    1
    15     8    10    1
    16     8    14    1
    17     4     5    1
    18    28    36    1
    19    30    33    1
    20    30    38    1
    21    31    34    1
    22    31    39    1
    23    32    35    1
    24    32    40    1
    25    41    43   ar
    26    15    19    2
    27    42    43   ar
    28    16    22    2
    29    17    12    1
    30    17    19   ar
    31    17    20   ar
    32    18    19   ar
    33    18    22   ar
    34    18    23    1
    35     9    10    1
    36     9    11    1
    37    10    12    1
    38    11     5    1
    39    33    34    1
    40    33    35    1
    41    34    36    1
    42    35    37    1
    43    37    43    1
    44    20    21   ar
    45    21    22   ar
@<TRIPOS>MOLECULE
*****
 43 45 0 0 0
SMALL
GASTEIGER

@<TRIPOS>ATOM
      1 P          23.4241   72.3031   -3.4794 P.3     1  UNL1        0.2189
      2 O          24.0544   70.8389   -3.2007 O.co2   1  UNL1       -0.4371
      3 O          24.4045   73.3349   -3.9551 O.2     1  UNL1       -0.5170
      4 O          22.6418   72.6569   -2.1080 O.3     1  UNL1       -0.3112
      5 C          23.3898   72.7609   -0.9105 C.3     1  UNL1        0.1811
      6 O          24.4309   71.2594    0.6514 O.3     1  UNL1       -0.3308
      7 O          21.6741   70.2150    1.1998 O.3     1  UNL1       -0.3794
      8 O          22.1194   71.8659    3.3241 O.3     1  UNL1       -0.3779
      9 C          22.0946   71.5491    0.9134 C.3     1  UNL1        0.1713
     10 C          22.7937   72.1477    2.1156 C.3     1  UNL1        0.1895
     11 C          23.2219   71.4773   -0.1076 C.3     1  UNL1        0.1764
     12 C          24.1624   71.4926    2.0431 C.3     1  UNL1        0.2383
     13 H          20.9541   70.2352    1.8501 H       1  UNL1        0.2105
     14 H          21.2540   72.3053    3.3215 H       1  UNL1        0.2106
     15 O          26.8413   70.6747    2.4054 O.2     1  UNL1       -0.2464
     16 O          28.0510   74.7734    4.1319 O.2     1  UNL1       -0.2670
     17 N          25.1982   72.3258    2.5852 N.ar    1  UNL1       -0.2551
     18 N          27.4410   72.7165    3.2659 N.ar    1  UNL1       -0.2743
     19 C          26.5114   71.8181    2.7257 C.ar    1  UNL1        0.3323
     20 C          24.9095   73.6297    2.9693 C.ar    1  UNL1        0.0869
     21 C          25.8062   74.4742    3.4826 C.ar    1  UNL1        0.0795
     22 C          27.2013   74.0220    3.6632 C.ar    1  UNL1        0.2626
     23 H          28.3616   72.3851    3.3752 H       1  UNL1        0.1734
     24 O          22.2217   71.9898   -4.5132 O.3     1  UNL1       -0.2703
     25 P          21.5195   72.9160   -5.6369 P.3     1  UNL1        0.2208
     26 O          22.4345   72.6643   -6.9483 O.co2   1  UNL1       -0.4371
     27 O          21.3814   74.3592   -5.2469 O.2     1  UNL1       -0.5170
     28 O          20.1247   72.1749   -5.9652 O.3     1  UNL1       -0.2858
     29 O          19.4264   69.9841   -5.3978 O.3     1  UNL1       -0.3226
     30 O          17.4353   70.6040   -8.9643 O.3     1  UNL1       -0.3794
     31 O          20.2119   71.4565   -8.6508 O.3     1  UNL1       -0.3775
     32 O          15.9925   70.7427   -6.4444 O.3     1  UNL1       -0.3792
     33 C          18.0239   70.9773   -7.7184 C.3     1  UNL1        0.1718
     34 C          19.5122   70.6272   -7.7303 C.3     1  UNL1        0.1968
     35 C          17.3053   70.2092   -6.6069 C.3     1  UNL1        0.1723
     36 C          20.1255   70.7985   -6.3398 C.3     1  UNL1        0.2706
     37 C          18.0475   70.3269   -5.2788 C.3     1  UNL1        0.1830
     38 H          17.8761   71.0798   -9.6858 H       1  UNL1        0.2105
     39 H          19.8277   71.3530   -9.5351 H       1  UNL1        0.2106
     40 H          15.5095   70.6740   -7.2827 H       1  UNL1        0.2106
     41 O          18.5534   68.8216   -3.5527 O.co2   1  UNL1       -0.5466
     42 O          16.3653   69.0008   -4.1684 O.co2   1  UNL1       -0.5466
     43 C          17.5365   69.3253   -4.2950 C.2     1  UNL1        0.0799
@<TRIPOS>UNITY_ATOM_ATTR
2 1
charge -1
26 1
charge -1
41 1
charge -1
@<TRIPOS>BOND
     1     1     4    1
     2     1    24    1
     3     1     2    1
     4     1     3    2
     5    25    28    1
     6    25    24    1
     7    25    26    1
     8    25    27    2
     9     6    11    1
    10     6    12    1
    11    29    36    1
    12    29    37    1
    13     7     9    1
    14     7    13    1
    15     8    10    1
    16     8    14    1
    17     4     5    1
    18    28    36    1
    19    30    33    1
    20    30    38    1
    21    31    34    1
    22    31    39    1
    23    32    35    1
    24    32    40    1
    25    41    43   ar
    26    15    19    2
    27    42    43   ar
    28    16    22    2
    29    17    12    1
    30    17    19   ar
    31    17    20   ar
    32    18    19   ar
    33    18    22   ar
    34    18    23    1
    35     9    10    1
    36     9    11    1
    37    10    12    1
    38    11     5    1
    39    33    34    1
    40    33    35    1
    41    34    36    1
    42    35    37    1
    43    37    43    1
    44    20    21   ar
    45    21    22   ar
@<TRIPOS>MOLECULE
*****
 43 45 0 0 0
SMALL
GASTEIGER

@<TRIPOS>ATOM
      1 P          22.4533   75.0802   -4.2891 P.3     1  UNL1        0.2189
      2 O          23.8050   74.9825   -5.1736 O.co2   1  UNL1       -0.4371
      3 O          21.7932   76.4279   -4.2876 O.2     1  UNL1       -0.5170
      4 O          22.8954   74.5128   -2.8398 O.3     1  UNL1       -0.3112
      5 C          21.9189   73.8763   -2.0363 C.3     1  UNL1        0.1811
      6 O          23.3745   72.0251   -1.5549 O.3     1  UNL1       -0.3308
      7 O          20.9671   70.2763   -1.9256 O.3     1  UNL1       -0.3794
      8 O          21.1725   70.4399    0.7887 O.3     1  UNL1       -0.3779
      9 C          21.0563   71.5820   -1.3548 C.3     1  UNL1        0.1713
     10 C          21.6825   71.5106    0.0218 C.3     1  UNL1        0.1895
     11 C          22.0989   72.3672   -2.1388 C.3     1  UNL1        0.1764
     12 C          23.1554   71.3425   -0.3101 C.3     1  UNL1        0.2383
     13 H          20.3069   69.7557   -1.4411 H       1  UNL1        0.2105
     14 H          20.2323   70.5940    0.9738 H       1  UNL1        0.2106
     15 O          24.5612   69.8427    1.6266 O.2     1  UNL1       -0.2464
     16 O          26.4105   73.6336    3.4850 O.2     1  UNL1       -0.2670
     17 N          24.0114   71.9121    0.6917 N.ar    1  UNL1       -0.2551
     18 N          25.4802   71.7323    2.5510 N.ar    1  UNL1       -0.2743
     19 C          24.6715   71.0702    1.6178 C.ar    1  UNL1        0.3323
     20 C          24.1914   73.2888    0.7491 C.ar    1  UNL1        0.0869
     21 C          24.9656   73.9053    1.6442 C.ar    1  UNL1        0.0795
     22 C          25.6900   73.0984    2.6480 C.ar    1  UNL1        0.2626
     23 H          25.9483   71.1673    3.2074 H       1  UNL1        0.1734
     24 O          21.5425   73.8850   -4.8849 O.3     1  UNL1       -0.2703
     25 P          21.4314   73.2794   -6.3797 P.3     1  UNL1        0.2208
     26 O          22.6372   72.2006   -6.4323 O.co2   1  UNL1       -0.4371
     27 O          21.4781   74.3127   -7.4679 O.2     1  UNL1       -0.5170
     28 O          20.0874   72.3872   -6.3609 O.3     1  UNL1       -0.2858
     29 O          19.5561   70.2001   -5.6238 O.3     1  UNL1       -0.3226
     30 O          17.3760   70.4605   -9.1234 O.3     1  UNL1       -0.3794
     31 O          20.1033   71.4998   -8.9969 O.3     1  UNL1       -0.3775
     32 O          16.0384   70.6769   -6.5515 O.3     1  UNL1       -0.3792
     33 C          17.9932   70.9505   -7.9331 C.3     1  UNL1        0.1718
     34 C          19.4989   70.6920   -7.9936 C.3     1  UNL1        0.1968
     35 C          17.3744   70.2150   -6.7423 C.3     1  UNL1        0.1723
     36 C          20.1600   70.9917   -6.6476 C.3     1  UNL1        0.2706
     37 C          18.1646   70.4652   -5.4611 C.3     1  UNL1        0.1830
     38 H          17.7536   70.9137   -9.8937 H       1  UNL1        0.2105
     39 H          19.6884   71.3150   -9.8537 H       1  UNL1        0.2106
     40 H          15.5247   70.5236   -7.3598 H       1  UNL1        0.2106
     41 O          18.8162   69.2066   -3.5922 O.co2   1  UNL1       -0.5466
     42 O          16.6398   69.0394   -4.2514 O.co2   1  UNL1       -0.5466
     43 C          17.7621   69.5013   -4.3928 C.2     1  UNL1        0.0799
@<TRIPOS>UNITY_ATOM_ATTR
2 1
charge -1
26 1
charge -1
41 1
charge -1
@<TRIPOS>BOND
     1     1     4    1
     2     1    24    1
     3     1     2    1
     4     1     3    2
     5    25    28    1
     6    25    24    1
     7    25    26    1
     8    25    27    2
     9     6    11    1
    10     6    12    1
    11    29    36    1
    12    29    37    1
    13     7     9    1
    14     7    13    1
    15     8    10    1
    16     8    14    1
    17     4     5    1
    18    28    36    1
    19    30    33    1
    20    30    38    1
    21    31    34    1
    22    31    39    1
    23    32    35    1
    24    32    40    1
    25    41    43   ar
    26    15    19    2
    27    42    43   ar
    28    16    22    2
    29    17    12    1
    30    17    19   ar
    31    17    20   ar
    32    18    19   ar
    33    18    22   ar
    34    18    23    1
    35     9    10    1
    36     9    11    1
    37    10    12    1
    38    11     5    1
    39    33    34    1
    40    33    35    1
    41    34    36    1
    42    35    37    1
    43    37    43    1
    44    20    21   ar
    45    21    22   ar
@<TRIPOS>MOLECULE
*****
 43 45 0 0 0
SMALL
GASTEIGER

@<TRIPOS>ATOM
      1 P          22.8959   73.2004   -4.1099 P.3     1  UNL1        0.2189
      2 O          22.6254   74.7267   -4.5749 O.co2   1  UNL1       -0.4371
      3 O          24.1783   72.6034   -4.6108 O.2     1  UNL1       -0.5170
      4 O          21.5442   72.4194   -4.5350 O.3     1  UNL1       -0.3112
      5 C          21.1234   71.3193   -3.7493 C.3     1  UNL1        0.1811
      6 O          18.9564   71.9300   -4.5911 O.3     1  UNL1       -0.3308
      7 O          17.8341   70.5284   -2.1896 O.3     1  UNL1       -0.3794
      8 O          17.4841   68.6881   -4.1712 O.3     1  UNL1       -0.3779
      9 C          18.9754   70.1941   -2.9795 C.3     1  UNL1        0.1713
     10 C          18.5411   69.6145   -4.3091 C.3     1  UNL1        0.1895
     11 C          19.6502   71.4918   -3.4028 C.3     1  UNL1        0.1764
     12 C          18.1310   70.8595   -5.0770 C.3     1  UNL1        0.2383
     13 H          17.3863   69.7151   -1.9073 H       1  UNL1        0.2105
     14 H          17.7955   67.9137   -3.6758 H       1  UNL1        0.2106
     15 O          16.2400   69.7428   -6.8528 O.2     1  UNL1       -0.2464
     16 O          19.0043   70.3792  -10.4857 O.2     1  UNL1       -0.2670
     17 N          18.3307   70.7213   -6.4919 N.ar    1  UNL1       -0.2551
     18 N          17.6190   70.0599   -8.6604 N.ar    1  UNL1       -0.2743
     19 C          17.3174   70.1464   -7.2949 C.ar    1  UNL1        0.3323
     20 C          19.5178   71.1537   -7.0703 C.ar    1  UNL1        0.0869
     21 C          19.7909   71.0648   -8.3735 C.ar    1  UNL1        0.0795
     22 C          18.7854   70.4755   -9.2819 C.ar    1  UNL1        0.2626
     23 H          16.9296   69.6613   -9.2393 H       1  UNL1        0.1734
     24 O          22.7760   73.2848   -2.5002 O.3     1  UNL1       -0.2703
     25 P          22.2686   74.4781   -1.5347 P.3     1  UNL1        0.2208
     26 O          20.7041   74.6279   -1.9227 O.co2   1  UNL1       -0.4371
     27 O          23.0603   75.7478   -1.6568 O.2     1  UNL1       -0.5170
     28 O          22.2614   73.8332   -0.0560 O.3     1  UNL1       -0.2858
     29 O          23.0286   71.6776    0.5554 O.3     1  UNL1       -0.3226
     30 O          20.1697   72.4041    3.4479 O.3     1  UNL1       -0.3794
     31 O          19.6703   73.1190    0.6597 O.3     1  UNL1       -0.3775
     32 O          22.9944   72.6061    4.1049 O.3     1  UNL1       -0.3792
     33 C          21.1922   72.7447    2.5117 C.3     1  UNL1        0.1718
     34 C          20.7612   72.3223    1.1070 C.3     1  UNL1        0.1968
     35 C          22.4709   72.0095    2.9197 C.3     1  UNL1        0.1723
     36 C          21.9175   72.4595    0.1155 C.3     1  UNL1        0.2706
     37 C          23.5314   72.0871    1.8253 C.3     1  UNL1        0.1830
     38 H          19.3473   72.8598    3.2088 H       1  UNL1        0.2105
     39 H          18.9331   73.0369    1.2844 H       1  UNL1        0.2106
     40 H          22.3290   72.5634    4.8094 H       1  UNL1        0.2106
     41 O          25.6856   71.7194    2.6772 O.co2   1  UNL1       -0.5466
     42 O          24.5930   69.9205    1.8000 O.co2   1  UNL1       -0.5466
     43 C          24.6311   71.1088    2.0820 C.2     1  UNL1        0.0799
@<TRIPOS>UNITY_ATOM_ATTR
2 1
charge -1
26 1
charge -1
41 1
charge -1
@<TRIPOS>BOND
     1     1     4    1
     2     1    24    1
     3     1     2    1
     4     1     3    2
     5    25    28    1
     6    25    24    1
     7    25    26    1
     8    25    27    2
     9     6    11    1
    10     6    12    1
    11    29    36    1
    12    29    37    1
    13     7     9    1
    14     7    13    1
    15     8    10    1
    16     8    14    1
    17     4     5    1
    18    28    36    1
    19    30    33    1
    20    30    38    1
    21    31    34    1
    22    31    39    1
    23    32    35    1
    24    32    40    1
    25    41    43   ar
    26    15    19    2
    27    42    43   ar
    28    16    22    2
    29    17    12    1
    30    17    19   ar
    31    17    20   ar
    32    18    19   ar
    33    18    22   ar
    34    18    23    1
    35     9    10    1
    36     9    11    1
    37    10    12    1
    38    11     5    1
    39    33    34    1
    40    33    35    1
    41    34    36    1
    42    35    37    1
    43    37    43    1
    44    20    21   ar
    45    21    22   ar
@<TRIPOS>MOLECULE
*****
 43 45 0 0 0
SMALL
GASTEIGER

@<TRIPOS>ATOM
      1 P          22.1924   72.4476   -4.9155 P.3     1  UNL1        0.2189
      2 O          23.8016   72.5184   -4.7595 O.co2   1  UNL1       -0.4371
      3 O          21.5186   71.4100   -4.0662 O.2     1  UNL1       -0.5170
      4 O          21.9624   72.3072   -6.5109 O.3     1  UNL1       -0.3112
      5 C          20.6368   72.3300   -7.0075 C.3     1  UNL1        0.1811
      6 O          19.4663   70.3397   -6.3395 O.3     1  UNL1       -0.3308
      7 O          19.4627   69.5910   -9.2431 O.3     1  UNL1       -0.3794
      8 O          16.9362   70.5472   -8.8712 O.3     1  UNL1       -0.3779
      9 C          19.3339   70.8796   -8.6420 C.3     1  UNL1        0.1713
     10 C          17.9585   71.0369   -8.0289 C.3     1  UNL1        0.1895
     11 C          20.2357   70.9183   -7.4158 C.3     1  UNL1        0.1764
     12 C          18.0922   70.2359   -6.7449 C.3     1  UNL1        0.2383
     13 H          18.8955   69.5422  -10.0290 H       1  UNL1        0.2105
     14 H          16.8910   71.0903   -9.6742 H       1  UNL1        0.2106
     15 O          16.6110   68.6175   -4.9664 O.2     1  UNL1       -0.2464
     16 O          14.9167   72.2865   -2.7501 O.2     1  UNL1       -0.2670
     17 N          17.2557   70.7421   -5.6937 N.ar    1  UNL1       -0.2551
     18 N          15.7677   70.4464   -3.8649 N.ar    1  UNL1       -0.2743
     19 C          16.5539   69.8437   -4.8557 C.ar    1  UNL1        0.3323
     20 C          17.1382   72.1131   -5.5002 C.ar    1  UNL1        0.0869
     21 C          16.3850   72.6728   -4.5514 C.ar    1  UNL1        0.0795
     22 C          15.6186   71.8044   -3.6339 C.ar    1  UNL1        0.2626
     23 H          15.2681   69.8413   -3.2704 H       1  UNL1        0.1734
     24 O          21.7313   73.9673   -4.6142 O.3     1  UNL1       -0.2703
     25 P          22.3199   75.0720   -3.5910 P.3     1  UNL1        0.2208
     26 O          21.0660   76.0700   -3.3629 O.co2   1  UNL1       -0.4371
     27 O          23.5709   75.7501   -4.0697 O.2     1  UNL1       -0.5170
     28 O          22.4772   74.2889   -2.1894 O.3     1  UNL1       -0.2858
     29 O          20.9908   72.9784   -0.8924 O.3     1  UNL1       -0.3226
     30 O          23.1209   74.9747    2.0308 O.3     1  UNL1       -0.3794
     31 O          22.2289   76.3786   -0.3708 O.3     1  UNL1       -0.3775
     32 O          23.6729   72.1744    1.4788 O.3     1  UNL1       -0.3792
     33 C          22.9190   74.3483    0.7640 C.3     1  UNL1        0.1718
     34 C          21.8064   75.0732    0.0062 C.3     1  UNL1        0.1968
     35 C          22.5295   72.8897    1.0144 C.3     1  UNL1        0.1723
     36 C          21.4045   74.2978   -1.2492 C.3     1  UNL1        0.2706
     37 C          22.0211   72.2222   -0.2602 C.3     1  UNL1        0.1830
     38 H          23.3694   75.9029    1.8968 H       1  UNL1        0.2105
     39 H          22.4857   76.8761    0.4210 H       1  UNL1        0.2106
     40 H          24.0064   72.5893    2.2896 H       1  UNL1        0.2106
     41 O          20.4515   70.6078   -0.9171 O.co2   1  UNL1       -0.5466
     42 O          21.5591   70.2447    1.0426 O.co2   1  UNL1       -0.5466
     43 C          21.3435   70.9280    0.0529 C.2     1  UNL1        0.0799
@<TRIPOS>UNITY_ATOM_ATTR
2 1
charge -1
26 1
charge -1
41 1
charge -1
@<TRIPOS>BOND
     1     1     4    1
     2     1    24    1
     3     1     2    1
     4     1     3    2
     5    25    28    1
     6    25    24    1
     7    25    26    1
     8    25    27    2
     9     6    11    1
    10     6    12    1
    11    29    36    1
    12    29    37    1
    13     7     9    1
    14     7    13    1
    15     8    10    1
    16     8    14    1
    17     4     5    1
    18    28    36    1
    19    30    33    1
    20    30    38    1
    21    31    34    1
    22    31    39    1
    23    32    35    1
    24    32    40    1
    25    41    43   ar
    26    15    19    2
    27    42    43   ar
    28    16    22    2
    29    17    12    1
    30    17    19   ar
    31    17    20   ar
    32    18    19   ar
    33    18    22   ar
    34    18    23    1
    35     9    10    1
    36     9    11    1
    37    10    12    1
    38    11     5    1
    39    33    34    1
    40    33    35    1
    41    34    36    1
    42    35    37    1
    43    37    43    1
    44    20    21   ar
    45    21    22   ar
@<TRIPOS>MOLECULE
*****
 43 45 0 0 0
SMALL
GASTEIGER

@<TRIPOS>ATOM
      1 P          21.2693   71.7118   -1.9960 P.3     1  UNL1        0.2189
      2 O          20.0781   70.7393   -1.4918 O.co2   1  UNL1       -0.4371
      3 O          22.6312   71.0824   -2.0258 O.2     1  UNL1       -0.5170
      4 O          21.1219   73.0237   -1.0605 O.3     1  UNL1       -0.3112
      5 C          21.9935   73.1664    0.0461 C.3     1  UNL1        0.1811
      6 O          22.6102   71.4331    1.5931 O.3     1  UNL1       -0.3308
      7 O          20.1784   72.2230    3.1596 O.3     1  UNL1       -0.3794
      8 O          22.1960   73.4258    4.5448 O.3     1  UNL1       -0.3779
      9 C          21.0813   73.0435    2.4179 C.3     1  UNL1        0.1713
     10 C          22.3895   73.1917    3.1655 C.3     1  UNL1        0.1895
     11 C          21.5087   72.2698    1.1782 C.3     1  UNL1        0.1764
     12 C          23.0643   71.8593    2.8875 C.3     1  UNL1        0.2383
     13 H          19.8913   72.6963    3.9567 H       1  UNL1        0.2105
     14 H          21.7638   74.2858    4.6692 H       1  UNL1        0.2106
     15 O          24.8104   69.7290    2.2632 O.2     1  UNL1       -0.2464
     16 O          28.5399   72.3734    2.8480 O.2     1  UNL1       -0.2670
     17 N          24.4960   71.9634    2.8691 N.ar    1  UNL1       -0.2551
     18 N          26.6662   71.0479    2.5561 N.ar    1  UNL1       -0.2743
     19 C          25.2818   70.8330    2.5425 C.ar    1  UNL1        0.3323
     20 C          25.1072   73.1745    3.1704 C.ar    1  UNL1        0.0869
     21 C          26.4281   73.3639    3.1790 C.ar    1  UNL1        0.0795
     22 C          27.3206   72.2332    2.8498 C.ar    1  UNL1        0.2626
     23 H          27.2341   70.2749    2.3339 H       1  UNL1        0.1734
     24 O          20.7340   72.2271   -3.4315 O.3     1  UNL1       -0.2703
     25 P          19.4963   73.1925   -3.8186 P.3     1  UNL1        0.2208
     26 O          20.2231   74.5805   -4.2254 O.co2   1  UNL1       -0.4371
     27 O          18.4613   73.3294   -2.7398 O.2     1  UNL1       -0.5170
     28 O          18.9371   72.6022   -5.2119 O.3     1  UNL1       -0.2858
     29 O          18.6728   70.2510   -5.1057 O.3     1  UNL1       -0.3226
     30 O          17.7902   71.0180   -9.0681 O.3     1  UNL1       -0.3794
     31 O          20.0261   72.3692   -7.7606 O.3     1  UNL1       -0.3775
     32 O          15.6545   70.4358   -7.1837 O.3     1  UNL1       -0.3792
     33 C          17.8520   71.2963   -7.6693 C.3     1  UNL1        0.1718
     34 C          19.3090   71.2721   -7.2066 C.3     1  UNL1        0.1968
     35 C          17.0432   70.2229   -6.9373 C.3     1  UNL1        0.1723
     36 C          19.3997   71.3371   -5.6813 C.3     1  UNL1        0.2706
     37 C          17.2849   70.2734   -5.4315 C.3     1  UNL1        0.1830
     38 H          18.2973   71.6874   -9.5539 H       1  UNL1        0.2105
     39 H          19.9724   72.3344   -8.7282 H       1  UNL1        0.2106
     40 H          15.4873   70.4062   -8.1386 H       1  UNL1        0.2106
     41 O          16.1771   68.2205   -5.6764 O.co2   1  UNL1       -0.5466
     42 O          16.8546   68.7927   -3.5757 O.co2   1  UNL1       -0.5466
     43 C          16.7648   69.0393   -4.7691 C.2     1  UNL1        0.0799
@<TRIPOS>UNITY_ATOM_ATTR
2 1
charge -1
26 1
charge -1
41 1
charge -1
@<TRIPOS>BOND
     1     1     4    1
     2     1    24    1
     3     1     2    1
     4     1     3    2
     5    25    28    1
     6    25    24    1
     7    25    26    1
     8    25    27    2
     9     6    11    1
    10     6    12    1
    11    29    36    1
    12    29    37    1
    13     7     9    1
    14     7    13    1
    15     8    10    1
    16     8    14    1
    17     4     5    1
    18    28    36    1
    19    30    33    1
    20    30    38    1
    21    31    34    1
    22    31    39    1
    23    32    35    1
    24    32    40    1
    25    41    43   ar
    26    15    19    2
    27    42    43   ar
    28    16    22    2
    29    17    12    1
    30    17    19   ar
    31    17    20   ar
    32    18    19   ar
    33    18    22   ar
    34    18    23    1
    35     9    10    1
    36     9    11    1
    37    10    12    1
    38    11     5    1
    39    33    34    1
    40    33    35    1
    41    34    36    1
    42    35    37    1
    43    37    43    1
    44    20    21   ar
    45    21    22   ar
