@<TRIPOS>MOLECULE
*****
 43 45 0 0 0
SMALL
GASTEIGER

@<TRIPOS>ATOM
      1 P          20.1313   70.4320   -3.1673 P.3     1  UNL1        0.2189
      2 O          19.9897   68.9772   -3.8609 O.co2   1  UNL1       -0.4371
      3 O          19.8936   70.4537   -1.6860 O.2     1  UNL1       -0.5170
      4 O          19.1595   71.3788   -4.0489 O.3     1  UNL1       -0.3112
      5 C          18.4489   72.4148   -3.3936 C.3     1  UNL1        0.1811
      6 O          16.6951   72.4502   -5.0357 O.3     1  UNL1       -0.3308
      7 O          15.0800   70.8605   -3.0723 O.3     1  UNL1       -0.3794
      8 O          15.9369   68.9514   -4.8210 O.3     1  UNL1       -0.3779
      9 C          16.4794   70.8049   -3.3440 C.3     1  UNL1        0.1713
     10 C          16.7313   70.1096   -4.6656 C.3     1  UNL1        0.1895
     11 C          16.9578   72.2221   -3.6339 C.3     1  UNL1        0.1764
     12 C          16.3803   71.1979   -5.6660 C.3     1  UNL1        0.2383
     13 H          14.7517   69.9668   -2.8838 H       1  UNL1        0.2105
     14 H          16.1983   68.2891   -4.1623 H       1  UNL1        0.2106
     15 O          15.5450   72.2295   -8.1592 O.2     1  UNL1       -0.2464
     16 O          19.3497   70.7092  -10.2696 O.2     1  UNL1       -0.2670
     17 N          17.1332   71.0862   -6.8834 N.ar    1  UNL1       -0.2551
     18 N          17.4402   71.4718   -9.2079 N.ar    1  UNL1       -0.2743
     19 C          16.6238   71.6382   -8.0819 C.ar    1  UNL1        0.3323
     20 C          18.3622   70.4356   -6.8809 C.ar    1  UNL1        0.0869
     21 C          19.1279   70.2844   -7.9635 C.ar    1  UNL1        0.0795
     22 C          18.6686   70.8320   -9.2562 C.ar    1  UNL1        0.2626
     23 H          17.1056   71.8479  -10.0543 H       1  UNL1        0.1734
     24 O          21.6089   70.9075   -3.6186 O.3     1  UNL1       -0.2703
     25 P          22.8081   71.5892   -2.7760 P.3     1  UNL1        0.2208
     26 O          22.8351   73.1084   -3.3318 O.co2   1  UNL1       -0.4371
     27 O          24.1208   70.8682   -2.8804 O.2     1  UNL1       -0.5170
     28 O          22.2318   71.7149   -1.2737 O.3     1  UNL1       -0.2858
     29 O          23.9426   72.6613    0.0657 O.3     1  UNL1       -0.3258
     30 O          21.1048   71.9989    2.9912 O.3     1  UNL1       -0.3794
     31 O          21.6422   74.6818    2.1187 O.3     1  UNL1       -0.3794
     32 O          21.4646   70.0678    0.8649 O.3     1  UNL1       -0.3775
     33 C          21.5726   72.3313    1.6813 C.3     1  UNL1        0.1715
     34 C          22.4675   73.5674    1.7910 C.3     1  UNL1        0.1694
     35 C          22.3567   71.1484    1.1161 C.3     1  UNL1        0.1967
     36 C          23.2181   73.8262    0.4777 C.3     1  UNL1        0.1761
     37 C          23.1052   71.5264   -0.1633 C.3     1  UNL1        0.2704
     38 H          20.6057   72.7457    3.3556 H       1  UNL1        0.2105
     39 H          21.1736   74.5053    2.9496 H       1  UNL1        0.2105
     40 H          20.9971   69.8379    1.6825 H       1  UNL1        0.2106
     41 O          24.8877   75.1268   -0.6313 O.3     1  UNL1       -0.3794
     42 C          24.2338   74.9586    0.6130 C.3     1  UNL1        0.1693
     43 H          25.5370   75.8445   -0.5602 H       1  UNL1        0.2105
@<TRIPOS>UNITY_ATOM_ATTR
2 1
charge -1
26 1
charge -1
@<TRIPOS>BOND
     1    25    28    1
     2    25    24    1
     3    25    26    1
     4    25    27    2
     5     1     4    1
     6     1    24    1
     7     1     2    1
     8     1     3    2
     9     6    11    1
    10     6    12    1
    11    29    36    1
    12    29    37    1
    13     7     9    1
    14     7    13    1
    15     8    10    1
    16     8    14    1
    17    28    37    1
    18     4     5    1
    19    30    33    1
    20    30    38    1
    21    31    34    1
    22    31    39    1
    23    32    35    1
    24    32    40    1
    25    41    42    1
    26    41    43    1
    27    15    19    2
    28    16    22    2
    29    17    12    1
    30    17    19   ar
    31    17    20   ar
    32    18    19   ar
    33    18    22   ar
    34    18    23    1
    35     9    10    1
    36     9    11    1
    37    10    12    1
    38    11     5    1
    39    33    34    1
    40    33    35    1
    41    34    36    1
    42    35    37    1
    43    36    42    1
    44    20    21   ar
    45    21    22   ar
@<TRIPOS>MOLECULE
*****
 43 45 0 0 0
SMALL
GASTEIGER

@<TRIPOS>ATOM
      1 P          23.4104   72.0240   -3.2970 P.3     1  UNL1        0.2189
      2 O          24.2312   73.0564   -4.2339 O.co2   1  UNL1       -0.4371
      3 O          24.0982   70.7150   -3.0424 O.2     1  UNL1       -0.5170
      4 O          21.9580   71.9288   -4.0037 O.3     1  UNL1       -0.3112
      5 C          21.1825   70.7604   -3.8004 C.3     1  UNL1        0.1811
      6 O          19.1625   71.7491   -4.6465 O.3     1  UNL1       -0.3308
      7 O          17.7833   70.4825   -2.3046 O.3     1  UNL1       -0.3794
      8 O          17.1645   68.7857   -4.3477 O.3     1  UNL1       -0.3779
      9 C          18.8650   69.9860   -3.0912 C.3     1  UNL1        0.1713
     10 C          18.3636   69.5270   -4.4446 C.3     1  UNL1        0.1895
     11 C          19.7538   71.1658   -3.4648 C.3     1  UNL1        0.1764
     12 C          18.1783   70.8457   -5.1758 C.3     1  UNL1        0.2383
     13 H          17.2020   69.7470   -2.0537 H       1  UNL1        0.2105
     14 H          17.3344   67.9561   -3.8749 H       1  UNL1        0.2106
     15 O          16.2326   69.8726   -6.9772 O.2     1  UNL1       -0.2464
     16 O          19.0467   70.4019  -10.5886 O.2     1  UNL1       -0.2670
     17 N          18.3756   70.7189   -6.5923 N.ar    1  UNL1       -0.2551
     18 N          17.6353   70.1371   -8.7740 N.ar    1  UNL1       -0.2743
     19 C          17.3346   70.2180   -7.4083 C.ar    1  UNL1        0.3323
     20 C          19.5904   71.0895   -7.1586 C.ar    1  UNL1        0.0869
     21 C          19.8617   71.0050   -8.4627 C.ar    1  UNL1        0.0795
     22 C          18.8278   70.4918   -9.3845 C.ar    1  UNL1        0.2626
     23 H          16.9252   69.7906   -9.3618 H       1  UNL1        0.1734
     24 O          23.1120   72.8965   -1.9694 O.3     1  UNL1       -0.2703
     25 P          22.1757   72.5922   -0.6873 P.3     1  UNL1        0.2208
     26 O          22.2122   70.9786   -0.5758 O.co2   1  UNL1       -0.4371
     27 O          20.7954   73.1753   -0.7811 O.2     1  UNL1       -0.5170
     28 O          23.0351   73.1077    0.5778 O.3     1  UNL1       -0.2858
     29 O          24.7380   72.4736    2.0992 O.3     1  UNL1       -0.3258
     30 O          21.6514   73.0729    4.7759 O.3     1  UNL1       -0.3794
     31 O          23.8094   74.9639    4.6537 O.3     1  UNL1       -0.3794
     32 O          21.1158   71.8614    2.2020 O.3     1  UNL1       -0.3775
     33 C          22.4223   73.3260    3.5982 C.3     1  UNL1        0.1715
     34 C          23.8467   73.6855    4.0255 C.3     1  UNL1        0.1694
     35 C          22.4232   72.0737    2.7235 C.3     1  UNL1        0.1967
     36 C          24.7970   73.7096    2.8208 C.3     1  UNL1        0.1761
     37 C          23.4377   72.1817    1.5836 C.3     1  UNL1        0.2704
     38 H          21.6463   73.8643    5.3355 H       1  UNL1        0.2105
     39 H          23.2055   74.9352    5.4124 H       1  UNL1        0.2105
     40 H          20.4830   71.7945    2.9334 H       1  UNL1        0.2106
     41 O          26.3701   75.1831    3.8518 O.3     1  UNL1       -0.3794
     42 C          26.2508   73.9105    3.2431 C.3     1  UNL1        0.1693
     43 H          27.2902   75.3247    4.1260 H       1  UNL1        0.2105
@<TRIPOS>UNITY_ATOM_ATTR
2 1
charge -1
26 1
charge -1
@<TRIPOS>BOND
     1    25    28    1
     2    25    24    1
     3    25    26    1
     4    25    27    2
     5     1     4    1
     6     1    24    1
     7     1     2    1
     8     1     3    2
     9     6    11    1
    10     6    12    1
    11    29    36    1
    12    29    37    1
    13     7     9    1
    14     7    13    1
    15     8    10    1
    16     8    14    1
    17    28    37    1
    18     4     5    1
    19    30    33    1
    20    30    38    1
    21    31    34    1
    22    31    39    1
    23    32    35    1
    24    32    40    1
    25    41    42    1
    26    41    43    1
    27    15    19    2
    28    16    22    2
    29    17    12    1
    30    17    19   ar
    31    17    20   ar
    32    18    19   ar
    33    18    22   ar
    34    18    23    1
    35     9    10    1
    36     9    11    1
    37    10    12    1
    38    11     5    1
    39    33    34    1
    40    33    35    1
    41    34    36    1
    42    35    37    1
    43    36    42    1
    44    20    21   ar
    45    21    22   ar
@<TRIPOS>MOLECULE
*****
 43 45 0 0 0
SMALL
GASTEIGER

@<TRIPOS>ATOM
      1 P          22.3471   71.4614   -2.8951 P.3     1  UNL1        0.2189
      2 O          22.1423   73.0456   -2.6391 O.co2   1  UNL1       -0.4371
      3 O          23.7549   71.0468   -3.2079 O.2     1  UNL1       -0.5170
      4 O          21.2425   71.1039   -4.0220 O.3     1  UNL1       -0.3112
      5 C          20.2968   70.0863   -3.7429 C.3     1  UNL1        0.1811
      6 O          18.6293   71.4362   -4.8250 O.3     1  UNL1       -0.3308
      7 O          16.6991   70.3326   -2.8133 O.3     1  UNL1       -0.3794
      8 O          16.1571   68.8464   -5.0346 O.3     1  UNL1       -0.3779
      9 C          17.8003   69.6903   -3.4538 C.3     1  UNL1        0.1713
     10 C          17.4597   69.3762   -4.8956 C.3     1  UNL1        0.1895
     11 C          18.9170   70.7154   -3.6068 C.3     1  UNL1        0.1764
     12 C          17.6122   70.7346   -5.5586 C.3     1  UNL1        0.2383
     13 H          15.9734   69.6975   -2.7043 H       1  UNL1        0.2105
     14 H          16.1109   67.9823   -4.5966 H       1  UNL1        0.2106
     15 O          15.8344   70.3461   -7.7187 O.2     1  UNL1       -0.2464
     16 O          19.2726   70.3516  -10.7878 O.2     1  UNL1       -0.2670
     17 N          18.0156   70.6313   -6.9326 N.ar    1  UNL1       -0.2551
     18 N          17.5478   70.3493   -9.2452 N.ar    1  UNL1       -0.2743
     19 C          17.0436   70.4356   -7.9412 C.ar    1  UNL1        0.3323
     20 C          19.3619   70.7243   -7.2684 C.ar    1  UNL1        0.0869
     21 C          19.8265   70.6387   -8.5166 C.ar    1  UNL1        0.0795
     22 C          18.8767   70.4344   -9.6293 C.ar    1  UNL1        0.2626
     23 H          16.8890   70.2126   -9.9643 H       1  UNL1        0.1734
     24 O          21.7309   70.7944   -1.5578 O.3     1  UNL1       -0.2703
     25 P          22.0541   71.0553    0.0044 P.3     1  UNL1        0.2208
     26 O          23.6485   71.3302    0.0125 O.co2   1  UNL1       -0.4371
     27 O          21.6119   69.9486    0.9174 O.2     1  UNL1       -0.5170
     28 O          21.3912   72.4916    0.3245 O.3     1  UNL1       -0.2858
     29 O          21.0441   72.2175    2.6528 O.3     1  UNL1       -0.3258
     30 O          20.2742   76.2625    2.3427 O.3     1  UNL1       -0.3794
     31 O          22.7065   75.3731    3.5841 O.3     1  UNL1       -0.3794
     32 O          19.3929   74.4607    0.2555 O.3     1  UNL1       -0.3775
     33 C          20.9287   75.0323    2.0207 C.3     1  UNL1        0.1715
     34 C          21.6142   74.5087    3.2844 C.3     1  UNL1        0.1694
     35 C          19.8902   74.0310    1.5182 C.3     1  UNL1        0.1967
     36 C          22.1095   73.0693    3.0900 C.3     1  UNL1        0.1761
     37 C          20.4729   72.6210    1.4067 C.3     1  UNL1        0.2704
     38 H          20.9281   76.9028    2.6620 H       1  UNL1        0.2105
     39 H          22.3802   76.2788    3.7039 H       1  UNL1        0.2105
     40 H          19.0266   75.3543    0.3394 H       1  UNL1        0.2106
     41 O          21.9500   73.0404    5.4738 O.3     1  UNL1       -0.3794
     42 C          22.6549   72.4723    4.3855 C.3     1  UNL1        0.1693
     43 H          22.2863   72.6695    6.3051 H       1  UNL1        0.2105
@<TRIPOS>UNITY_ATOM_ATTR
2 1
charge -1
26 1
charge -1
@<TRIPOS>BOND
     1    25    28    1
     2    25    24    1
     3    25    26    1
     4    25    27    2
     5     1     4    1
     6     1    24    1
     7     1     2    1
     8     1     3    2
     9     6    11    1
    10     6    12    1
    11    29    36    1
    12    29    37    1
    13     7     9    1
    14     7    13    1
    15     8    10    1
    16     8    14    1
    17    28    37    1
    18     4     5    1
    19    30    33    1
    20    30    38    1
    21    31    34    1
    22    31    39    1
    23    32    35    1
    24    32    40    1
    25    41    42    1
    26    41    43    1
    27    15    19    2
    28    16    22    2
    29    17    12    1
    30    17    19   ar
    31    17    20   ar
    32    18    19   ar
    33    18    22   ar
    34    18    23    1
    35     9    10    1
    36     9    11    1
    37    10    12    1
    38    11     5    1
    39    33    34    1
    40    33    35    1
    41    34    36    1
    42    35    37    1
    43    36    42    1
    44    20    21   ar
    45    21    22   ar
@<TRIPOS>MOLECULE
*****
 43 45 0 0 0
SMALL
GASTEIGER

@<TRIPOS>ATOM
      1 P          22.2690   73.1930   -4.7718 P.3     1  UNL1        0.2189
      2 O          22.7202   74.7446   -4.8526 O.co2   1  UNL1       -0.4371
      3 O          22.9828   72.2752   -5.7202 O.2     1  UNL1       -0.5170
      4 O          20.6593   73.2481   -4.9251 O.3     1  UNL1       -0.3112
      5 C          19.8725   72.4037   -4.1030 C.3     1  UNL1        0.1811
      6 O          18.1424   72.9859   -5.6656 O.3     1  UNL1       -0.3308
      7 O          16.2016   72.3042   -3.4840 O.3     1  UNL1       -0.3794
      8 O          16.1268   70.0815   -5.0622 O.3     1  UNL1       -0.3779
      9 C          17.4484   71.6903   -3.8067 C.3     1  UNL1        0.1713
     10 C          17.3123   70.8505   -5.0596 C.3     1  UNL1        0.1895
     11 C          18.4068   72.7846   -4.2599 C.3     1  UNL1        0.1764
     12 C          17.3258   71.9076   -6.1506 C.3     1  UNL1        0.2383
     13 H          15.5731   71.6249   -3.1915 H       1  UNL1        0.2105
     14 H          16.1664   69.4235   -4.3506 H       1  UNL1        0.2106
     15 O          15.8322   70.6360   -8.1829 O.2     1  UNL1       -0.2464
     16 O          19.5654   70.0699  -10.8257 O.2     1  UNL1       -0.2670
     17 N          17.8820   71.4183   -7.3805 N.ar    1  UNL1       -0.2551
     18 N          17.6922   70.3553   -9.4972 N.ar    1  UNL1       -0.2743
     19 C          17.0453   70.7940   -8.3349 C.ar    1  UNL1        0.3323
     20 C          19.2426   71.5598   -7.6305 C.ar    1  UNL1        0.0869
     21 C          19.8443   71.1348   -8.7435 C.ar    1  UNL1        0.0795
     22 C          19.0415   70.4718   -9.7913 C.ar    1  UNL1        0.2626
     23 H          17.1294   69.9170  -10.1761 H       1  UNL1        0.1734
     24 O          22.4731   72.8361   -3.2085 O.3     1  UNL1       -0.2703
     25 P          22.8502   71.4443   -2.4778 P.3     1  UNL1        0.2208
     26 O          24.3154   71.0991   -3.0706 O.co2   1  UNL1       -0.4371
     27 O          21.8338   70.3555   -2.6659 O.2     1  UNL1       -0.5170
     28 O          23.1184   71.8504   -0.9389 O.3     1  UNL1       -0.2858
     29 O          24.3474   70.9113    0.8566 O.3     1  UNL1       -0.3258
     30 O          20.8680   71.8642    2.8657 O.3     1  UNL1       -0.3794
     31 O          23.2415   73.4139    3.3270 O.3     1  UNL1       -0.3794
     32 O          20.7398   70.8450    0.1594 O.3     1  UNL1       -0.3775
     33 C          21.9028   72.0434    1.8950 C.3     1  UNL1        0.1715
     34 C          23.2367   72.1691    2.6337 C.3     1  UNL1        0.1694
     35 C          21.9199   70.8391    0.9554 C.3     1  UNL1        0.1967
     36 C          24.4192   72.0962    1.6582 C.3     1  UNL1        0.1761
     37 C          23.1619   70.8371    0.0623 C.3     1  UNL1        0.2704
     38 H          20.8514   72.6257    3.4652 H       1  UNL1        0.2105
     39 H          22.4897   73.4473    3.9393 H       1  UNL1        0.2105
     40 H          19.9607   70.8459    0.7364 H       1  UNL1        0.2106
     41 O          26.3388   70.7820    2.2029 O.3     1  UNL1       -0.3794
     42 C          25.7606   72.0611    2.3872 C.3     1  UNL1        0.1693
     43 H          27.1934   70.7450    2.6612 H       1  UNL1        0.2105
@<TRIPOS>UNITY_ATOM_ATTR
2 1
charge -1
26 1
charge -1
@<TRIPOS>BOND
     1    25    28    1
     2    25    24    1
     3    25    26    1
     4    25    27    2
     5     1     4    1
     6     1    24    1
     7     1     2    1
     8     1     3    2
     9     6    11    1
    10     6    12    1
    11    29    36    1
    12    29    37    1
    13     7     9    1
    14     7    13    1
    15     8    10    1
    16     8    14    1
    17    28    37    1
    18     4     5    1
    19    30    33    1
    20    30    38    1
    21    31    34    1
    22    31    39    1
    23    32    35    1
    24    32    40    1
    25    41    42    1
    26    41    43    1
    27    15    19    2
    28    16    22    2
    29    17    12    1
    30    17    19   ar
    31    17    20   ar
    32    18    19   ar
    33    18    22   ar
    34    18    23    1
    35     9    10    1
    36     9    11    1
    37    10    12    1
    38    11     5    1
    39    33    34    1
    40    33    35    1
    41    34    36    1
    42    35    37    1
    43    36    42    1
    44    20    21   ar
    45    21    22   ar
@<TRIPOS>MOLECULE
*****
 43 45 0 0 0
SMALL
GASTEIGER

@<TRIPOS>ATOM
      1 P          20.0819   71.9222   -1.2611 P.3     1  UNL1        0.2189
      2 O          19.5510   70.3974   -1.1587 O.co2   1  UNL1       -0.4371
      3 O          19.3555   72.9060   -0.3917 O.2     1  UNL1       -0.5170
      4 O          20.0586   72.2359   -2.8482 O.3     1  UNL1       -0.3112
      5 C          19.4958   71.2709   -3.7199 C.3     1  UNL1        0.1811
      6 O          17.7424   71.9838   -5.2002 O.3     1  UNL1       -0.3308
      7 O          15.8437   70.7010   -3.2662 O.3     1  UNL1       -0.3794
      8 O          16.0195   68.8386   -5.2505 O.3     1  UNL1       -0.3779
      9 C          17.1511   70.2851   -3.6572 C.3     1  UNL1        0.1713
     10 C          17.1214   69.7013   -5.0543 C.3     1  UNL1        0.1895
     11 C          18.0020   71.5338   -3.8524 C.3     1  UNL1        0.1764
     12 C          17.0468   70.9502   -5.9162 C.3     1  UNL1        0.2383
     13 H          15.2819   69.9204   -3.1353 H       1  UNL1        0.2105
     14 H          16.1132   68.0595   -4.6805 H       1  UNL1        0.2106
     15 O          15.6399   70.6294   -8.3443 O.2     1  UNL1       -0.2464
     16 O          19.5421   70.2640  -10.7692 O.2     1  UNL1       -0.2670
     17 N          17.6699   70.7698   -7.1970 N.ar    1  UNL1       -0.2551
     18 N          17.5840   70.4479   -9.5497 N.ar    1  UNL1       -0.2743
     19 C          16.8725   70.6168   -8.3551 C.ar    1  UNL1        0.3323
     20 C          19.0569   70.7463   -7.2957 C.ar    1  UNL1        0.0869
     21 C          19.7200   70.5830   -8.4423 C.ar    1  UNL1        0.0795
     22 C          18.9615   70.4162   -9.6989 C.ar    1  UNL1        0.2626
     23 H          17.0494   70.3390  -10.3695 H       1  UNL1        0.1734
     24 O          21.6602   71.7797   -0.9420 O.3     1  UNL1       -0.2703
     25 P          22.4342   71.3033    0.3948 P.3     1  UNL1        0.2208
     26 O          23.9389   71.0212   -0.1284 O.co2   1  UNL1       -0.4371
     27 O          21.7937   70.1401    1.0952 O.2     1  UNL1       -0.5170
     28 O          22.5585   72.6388    1.2926 O.3     1  UNL1       -0.2858
     29 O          24.6174   73.4887    2.1018 O.3     1  UNL1       -0.3258
     30 O          22.0943   75.0030    4.9987 O.3     1  UNL1       -0.3794
     31 O          23.2410   76.7742    3.0504 O.3     1  UNL1       -0.3794
     32 O          21.6375   72.3527    3.9279 O.3     1  UNL1       -0.3775
     33 C          22.4691   74.5994    3.6788 C.3     1  UNL1        0.1715
     34 C          23.6778   75.4324    3.2476 C.3     1  UNL1        0.1694
     35 C          22.8180   73.1123    3.6918 C.3     1  UNL1        0.1967
     36 C          24.3012   74.8785    1.9593 C.3     1  UNL1        0.1761
     37 C          23.4766   72.6752    2.3821 C.3     1  UNL1        0.2704
     38 H          21.8711   75.9462    4.9973 H       1  UNL1        0.2105
     39 H          22.8491   77.1119    3.8711 H       1  UNL1        0.2105
     40 H          21.2302   72.6386    4.7599 H       1  UNL1        0.2106
     41 O          25.4256   76.2360    0.3464 O.3     1  UNL1       -0.3794
     42 C          25.5994   75.5966    1.5975 C.3     1  UNL1        0.1693
     43 H          26.2439   76.6975    0.1034 H       1  UNL1        0.2105
@<TRIPOS>UNITY_ATOM_ATTR
2 1
charge -1
26 1
charge -1
@<TRIPOS>BOND
     1    25    28    1
     2    25    24    1
     3    25    26    1
     4    25    27    2
     5     1     4    1
     6     1    24    1
     7     1     2    1
     8     1     3    2
     9     6    11    1
    10     6    12    1
    11    29    36    1
    12    29    37    1
    13     7     9    1
    14     7    13    1
    15     8    10    1
    16     8    14    1
    17    28    37    1
    18     4     5    1
    19    30    33    1
    20    30    38    1
    21    31    34    1
    22    31    39    1
    23    32    35    1
    24    32    40    1
    25    41    42    1
    26    41    43    1
    27    15    19    2
    28    16    22    2
    29    17    12    1
    30    17    19   ar
    31    17    20   ar
    32    18    19   ar
    33    18    22   ar
    34    18    23    1
    35     9    10    1
    36     9    11    1
    37    10    12    1
    38    11     5    1
    39    33    34    1
    40    33    35    1
    41    34    36    1
    42    35    37    1
    43    36    42    1
    44    20    21   ar
    45    21    22   ar
@<TRIPOS>MOLECULE
*****
 43 45 0 0 0
SMALL
GASTEIGER

@<TRIPOS>ATOM
      1 P          21.5466   71.9663   -5.6204 P.3     1  UNL1        0.2189
      2 O          23.0860   72.4611   -5.6722 O.co2   1  UNL1       -0.4371
      3 O          21.1927   71.1194   -4.4334 O.2     1  UNL1       -0.5170
      4 O          21.3096   71.2822   -7.0673 O.3     1  UNL1       -0.3112
      5 C          20.2521   71.7642   -7.8780 C.3     1  UNL1        0.1811
      6 O          18.9804   69.7919   -7.3616 O.3     1  UNL1       -0.3308
      7 O          17.9822   69.9231  -10.1860 O.3     1  UNL1       -0.3794
      8 O          15.9020   70.9751   -8.7709 O.3     1  UNL1       -0.3779
      9 C          18.2786   70.9875   -9.2835 C.3     1  UNL1        0.1713
     10 C          17.2001   71.0958   -8.2259 C.3     1  UNL1        0.1895
     11 C          19.4929   70.5791   -8.4589 C.3     1  UNL1        0.1764
     12 C          17.5533   69.9467   -7.2969 C.3     1  UNL1        0.2383
     13 H          17.2102   70.1610  -10.7239 H       1  UNL1        0.2105
     14 H          15.7247   71.7294   -9.3544 H       1  UNL1        0.2106
     15 O          16.0224   68.1862   -5.7048 O.2     1  UNL1       -0.2464
     16 O          16.1553   71.0450   -2.0922 O.2     1  UNL1       -0.2670
     17 N          17.1736   70.2056   -5.9367 N.ar    1  UNL1       -0.2551
     18 N          16.0900   69.6110   -3.9072 N.ar    1  UNL1       -0.2743
     19 C          16.4029   69.2564   -5.2257 C.ar    1  UNL1        0.3323
     20 C          17.5651   71.3896   -5.3212 C.ar    1  UNL1        0.0869
     21 C          17.2573   71.7134   -4.0636 C.ar    1  UNL1        0.0795
     22 C          16.4547   70.7762   -3.2515 C.ar    1  UNL1        0.2626
     23 H          15.5535   68.9651   -3.3926 H       1  UNL1        0.1734
     24 O          20.7164   73.3488   -5.7318 O.3     1  UNL1       -0.2703
     25 P          20.7771   74.6980   -4.8435 P.3     1  UNL1        0.2208
     26 O          20.9973   74.1427   -3.3399 O.co2   1  UNL1       -0.4371
     27 O          19.5837   75.5946   -5.0040 O.2     1  UNL1       -0.5170
     28 O          22.1853   75.3823   -5.2356 O.3     1  UNL1       -0.2858
     29 O          23.3272   77.3923   -5.7576 O.3     1  UNL1       -0.3258
     30 O          23.3858   75.6134   -9.4836 O.3     1  UNL1       -0.3794
     31 O          25.8092   75.7741   -7.9507 O.3     1  UNL1       -0.3794
     32 O          21.0449   75.3608   -7.7996 O.3     1  UNL1       -0.3775
     33 C          23.4230   75.6453   -8.0543 C.3     1  UNL1        0.1715
     34 C          24.6225   76.4923   -7.6246 C.3     1  UNL1        0.1694
     35 C          22.1217   76.2533   -7.5345 C.3     1  UNL1        0.1967
     36 C          24.5771   76.7943   -6.1206 C.3     1  UNL1        0.1761
     37 C          22.1999   76.5602   -6.0379 C.3     1  UNL1        0.2704
     38 H          24.2091   75.2280   -9.8200 H       1  UNL1        0.2105
     39 H          25.8253   75.5893   -8.9030 H       1  UNL1        0.2105
     40 H          21.0059   75.1747   -8.7502 H       1  UNL1        0.2106
     41 O          25.2320   78.4809   -4.5600 O.3     1  UNL1       -0.3794
     42 C          25.6762   77.7672   -5.6992 C.3     1  UNL1        0.1693
     43 H          25.9216   79.1038   -4.2804 H       1  UNL1        0.2105
@<TRIPOS>UNITY_ATOM_ATTR
2 1
charge -1
26 1
charge -1
@<TRIPOS>BOND
     1    25    28    1
     2    25    24    1
     3    25    26    1
     4    25    27    2
     5     1     4    1
     6     1    24    1
     7     1     2    1
     8     1     3    2
     9     6    11    1
    10     6    12    1
    11    29    36    1
    12    29    37    1
    13     7     9    1
    14     7    13    1
    15     8    10    1
    16     8    14    1
    17    28    37    1
    18     4     5    1
    19    30    33    1
    20    30    38    1
    21    31    34    1
    22    31    39    1
    23    32    35    1
    24    32    40    1
    25    41    42    1
    26    41    43    1
    27    15    19    2
    28    16    22    2
    29    17    12    1
    30    17    19   ar
    31    17    20   ar
    32    18    19   ar
    33    18    22   ar
    34    18    23    1
    35     9    10    1
    36     9    11    1
    37    10    12    1
    38    11     5    1
    39    33    34    1
    40    33    35    1
    41    34    36    1
    42    35    37    1
    43    36    42    1
    44    20    21   ar
    45    21    22   ar
@<TRIPOS>MOLECULE
*****
 43 45 0 0 0
SMALL
GASTEIGER

@<TRIPOS>ATOM
      1 P          23.4217   71.9841   -3.3427 P.3     1  UNL1        0.2189
      2 O          24.1385   72.9145   -4.4553 O.co2   1  UNL1       -0.4371
      3 O          24.1929   70.7586   -2.9492 O.2     1  UNL1       -0.5170
      4 O          21.9452   71.7204   -3.9497 O.3     1  UNL1       -0.3112
      5 C          21.4712   72.5793   -4.9721 C.3     1  UNL1        0.1811
      6 O          20.5757   70.5744   -5.9479 O.3     1  UNL1       -0.3308
      7 O          20.8503   71.9620   -8.5918 O.3     1  UNL1       -0.3794
      8 O          18.1918   72.2365   -8.0497 O.3     1  UNL1       -0.3779
      9 C          20.4958   72.5044   -7.3207 C.3     1  UNL1        0.1713
     10 C          19.0794   72.1102   -6.9574 C.3     1  UNL1        0.1895
     11 C          21.3106   71.7788   -6.2572 C.3     1  UNL1        0.1764
     12 C          19.2578   70.6684   -6.5128 C.3     1  UNL1        0.2383
     13 H          20.3428   72.4101   -9.2872 H       1  UNL1        0.2105
     14 H          18.1118   73.1715   -8.2949 H       1  UNL1        0.2106
     15 O          16.6261   69.8191   -7.0878 O.2     1  UNL1       -0.2464
     16 O          15.6559   69.1975   -2.6253 O.2     1  UNL1       -0.2670
     17 N          18.2963   70.2784   -5.5204 N.ar    1  UNL1       -0.2551
     18 N          16.1452   69.5101   -4.8654 N.ar    1  UNL1       -0.2743
     19 C          17.0011   69.8688   -5.9146 C.ar    1  UNL1        0.3323
     20 C          18.6412   70.3039   -4.1735 C.ar    1  UNL1        0.0869
     21 C          17.8129   69.9600   -3.1851 C.ar    1  UNL1        0.0795
     22 C          16.4411   69.5201   -3.5115 C.ar    1  UNL1        0.2626
     23 H          15.2375   69.2218   -5.1160 H       1  UNL1        0.1734
     24 O          23.1378   73.0176   -2.1327 O.3     1  UNL1       -0.2703
     25 P          23.2685   72.8391   -0.5314 P.3     1  UNL1        0.2208
     26 O          21.7291   72.8081   -0.0347 O.co2   1  UNL1       -0.4371
     27 O          24.1141   73.8840    0.1372 O.2     1  UNL1       -0.5170
     28 O          23.7922   71.3257   -0.3305 O.3     1  UNL1       -0.2858
     29 O          24.9330   71.4107    1.7450 O.3     1  UNL1       -0.3258
     30 O          21.1010   72.2001    3.0655 O.3     1  UNL1       -0.3794
     31 O          23.0461   74.3124    3.0132 O.3     1  UNL1       -0.3794
     32 O          21.5309   70.2691    0.9522 O.3     1  UNL1       -0.3775
     33 C          22.1999   72.2480    2.1515 C.3     1  UNL1        0.1715
     34 C          23.3748   72.9357    2.8496 C.3     1  UNL1        0.1694
     35 C          22.5744   70.8236    1.7461 C.3     1  UNL1        0.1967
     36 C          24.6669   72.7880    2.0347 C.3     1  UNL1        0.1761
     37 C          23.8996   70.7834    0.9831 C.3     1  UNL1        0.2704
     38 H          20.8580   73.1014    3.3265 H       1  UNL1        0.2105
     39 H          22.2282   74.3918    3.5289 H       1  UNL1        0.2105
     40 H          20.6975   70.3001    1.4465 H       1  UNL1        0.2106
     41 O          25.9915   74.7155    2.5235 O.3     1  UNL1       -0.3794
     42 C          25.8817   73.3287    2.7858 C.3     1  UNL1        0.1693
     43 H          26.7603   75.0733    2.9954 H       1  UNL1        0.2105
@<TRIPOS>UNITY_ATOM_ATTR
2 1
charge -1
26 1
charge -1
@<TRIPOS>BOND
     1    25    28    1
     2    25    24    1
     3    25    26    1
     4    25    27    2
     5     1     4    1
     6     1    24    1
     7     1     2    1
     8     1     3    2
     9     6    11    1
    10     6    12    1
    11    29    36    1
    12    29    37    1
    13     7     9    1
    14     7    13    1
    15     8    10    1
    16     8    14    1
    17    28    37    1
    18     4     5    1
    19    30    33    1
    20    30    38    1
    21    31    34    1
    22    31    39    1
    23    32    35    1
    24    32    40    1
    25    41    42    1
    26    41    43    1
    27    15    19    2
    28    16    22    2
    29    17    12    1
    30    17    19   ar
    31    17    20   ar
    32    18    19   ar
    33    18    22   ar
    34    18    23    1
    35     9    10    1
    36     9    11    1
    37    10    12    1
    38    11     5    1
    39    33    34    1
    40    33    35    1
    41    34    36    1
    42    35    37    1
    43    36    42    1
    44    20    21   ar
    45    21    22   ar
@<TRIPOS>MOLECULE
*****
 43 45 0 0 0
SMALL
GASTEIGER

@<TRIPOS>ATOM
      1 P          22.7263   72.4930   -4.1373 P.3     1  UNL1        0.2189
      2 O          23.1520   73.5050   -5.3255 O.co2   1  UNL1       -0.4371
      3 O          23.7975   71.5346   -3.7067 O.2     1  UNL1       -0.5170
      4 O          21.3555   71.8203   -4.6725 O.3     1  UNL1       -0.3112
      5 C          20.7187   70.8475   -3.8626 C.3     1  UNL1        0.1811
      6 O          18.7759   71.7963   -4.9110 O.3     1  UNL1       -0.3308
      7 O          17.1982   70.5540   -2.6842 O.3     1  UNL1       -0.3794
      8 O          16.7903   68.8143   -4.7442 O.3     1  UNL1       -0.3779
      9 C          18.3536   70.0572   -3.3576 C.3     1  UNL1        0.1713
     10 C          17.9853   69.5685   -4.7429 C.3     1  UNL1        0.1895
     11 C          19.2607   71.2411   -3.6688 C.3     1  UNL1        0.1764
     12 C          17.8549   70.8719   -5.5126 C.3     1  UNL1        0.2383
     13 H          16.6038   69.8159   -2.4748 H       1  UNL1        0.2105
     14 H          16.9242   67.9952   -4.2423 H       1  UNL1        0.2106
     15 O          16.0091   70.1383   -7.5208 O.2     1  UNL1       -0.2464
     16 O          19.2323   70.3290  -10.8095 O.2     1  UNL1       -0.2670
     17 N          18.1845   70.7228   -6.9020 N.ar    1  UNL1       -0.2551
     18 N          17.6155   70.2341   -9.1567 N.ar    1  UNL1       -0.2743
     19 C          17.1837   70.3499   -7.8292 C.ar    1  UNL1        0.3323
     20 C          19.4878   70.9460   -7.3328 C.ar    1  UNL1        0.0869
     21 C          19.8836   70.8300   -8.6021 C.ar    1  UNL1        0.0795
     22 C          18.8995   70.4441   -9.6339 C.ar    1  UNL1        0.2626
     23 H          16.9355   69.9749   -9.8203 H       1  UNL1        0.1734
     24 O          22.2112   73.4924   -2.9758 O.3     1  UNL1       -0.2703
     25 P          23.0242   74.4810   -1.9886 P.3     1  UNL1        0.2208
     26 O          22.3110   75.9134   -2.2283 O.co2   1  UNL1       -0.4371
     27 O          24.5094   74.4844   -2.2075 O.2     1  UNL1       -0.5170
     28 O          22.5679   74.0418   -0.5041 O.3     1  UNL1       -0.2858
     29 O          23.5498   73.7640    1.6349 O.3     1  UNL1       -0.3258
     30 O          21.6144   70.1299    1.3203 O.3     1  UNL1       -0.3794
     31 O          20.5981   72.1269    3.1168 O.3     1  UNL1       -0.3794
     32 O          22.8792   71.2985   -1.0066 O.3     1  UNL1       -0.3775
     33 C          21.7848   71.5365    1.1258 C.3     1  UNL1        0.1715
     34 C          21.8803   72.2026    2.4998 C.3     1  UNL1        0.1694
     35 C          23.0607   71.7783    0.3213 C.3     1  UNL1        0.1967
     36 C          22.3284   73.6651    2.3766 C.3     1  UNL1        0.1761
     37 C          23.4443   73.2590    0.3023 C.3     1  UNL1        0.2704
     38 H          20.8058   69.9696    1.8300 H       1  UNL1        0.2105
     39 H          20.3266   71.1982    3.1881 H       1  UNL1        0.2105
     40 H          22.6369   70.3602   -0.9810 H       1  UNL1        0.2106
     41 O          23.8093   73.8089    4.2461 O.3     1  UNL1       -0.3794
     42 C          22.5823   74.3024    3.7410 C.3     1  UNL1        0.1693
     43 H          23.9841   74.2062    5.1141 H       1  UNL1        0.2105
@<TRIPOS>UNITY_ATOM_ATTR
2 1
charge -1
26 1
charge -1
@<TRIPOS>BOND
     1    25    28    1
     2    25    24    1
     3    25    26    1
     4    25    27    2
     5     1     4    1
     6     1    24    1
     7     1     2    1
     8     1     3    2
     9     6    11    1
    10     6    12    1
    11    29    36    1
    12    29    37    1
    13     7     9    1
    14     7    13    1
    15     8    10    1
    16     8    14    1
    17    28    37    1
    18     4     5    1
    19    30    33    1
    20    30    38    1
    21    31    34    1
    22    31    39    1
    23    32    35    1
    24    32    40    1
    25    41    42    1
    26    41    43    1
    27    15    19    2
    28    16    22    2
    29    17    12    1
    30    17    19   ar
    31    17    20   ar
    32    18    19   ar
    33    18    22   ar
    34    18    23    1
    35     9    10    1
    36     9    11    1
    37    10    12    1
    38    11     5    1
    39    33    34    1
    40    33    35    1
    41    34    36    1
    42    35    37    1
    43    36    42    1
    44    20    21   ar
    45    21    22   ar
@<TRIPOS>MOLECULE
*****
 43 45 0 0 0
SMALL
GASTEIGER

@<TRIPOS>ATOM
      1 P          19.9648   72.3834   -1.7459 P.3     1  UNL1        0.2189
      2 O          18.6638   73.3301   -1.9148 O.co2   1  UNL1       -0.4371
      3 O          21.1724   72.8216   -2.5212 O.2     1  UNL1       -0.5170
      4 O          19.4127   70.9006   -2.0840 O.3     1  UNL1       -0.3112
      5 C          19.0624   70.5987   -3.4233 C.3     1  UNL1        0.1811
      6 O          17.3593   71.4519   -4.8881 O.3     1  UNL1       -0.3308
      7 O          15.4226   69.8243   -3.2784 O.3     1  UNL1       -0.3794
      8 O          15.7944   68.2828   -5.4970 O.3     1  UNL1       -0.3779
      9 C          16.7677   69.5225   -3.6458 C.3     1  UNL1        0.1713
     10 C          16.8414   69.1501   -5.1119 C.3     1  UNL1        0.1895
     11 C          17.5670   70.8190   -3.6064 C.3     1  UNL1        0.1764
     12 C          16.7537   70.5084   -5.7868 C.3     1  UNL1        0.2383
     13 H          14.8926   69.0114   -3.2961 H       1  UNL1        0.2105
     14 H          15.8944   67.4326   -5.0412 H       1  UNL1        0.2106
     15 O          15.4957   70.6078   -8.3138 O.2     1  UNL1       -0.2464
     16 O          19.5375   70.6375  -10.5285 O.2     1  UNL1       -0.2670
     17 N          17.4530   70.5433   -7.0402 N.ar    1  UNL1       -0.2551
     18 N          17.5092   70.6227   -9.4145 N.ar    1  UNL1       -0.2743
     19 C          16.7269   70.5914   -8.2530 C.ar    1  UNL1        0.3323
     20 C          18.8435   70.5301   -7.0586 C.ar    1  UNL1        0.0869
     21 C          19.5747   70.5591   -8.1747 C.ar    1  UNL1        0.0795
     22 C          18.8933   70.6100   -9.4844 C.ar    1  UNL1        0.2626
     23 H          17.0250   70.6560  -10.2713 H       1  UNL1        0.1734
     24 O          20.1745   72.3365   -0.1437 O.3     1  UNL1       -0.2703
     25 P          21.3772   71.7333    0.7522 P.3     1  UNL1        0.2208
     26 O          22.6991   72.3885    0.0883 O.co2   1  UNL1       -0.4371
     27 O          21.3987   70.2339    0.8241 O.2     1  UNL1       -0.5170
     28 O          21.2310   72.4695    2.1810 O.3     1  UNL1       -0.2858
     29 O          21.6564   74.7432    2.6968 O.3     1  UNL1       -0.3258
     30 O          22.7697   73.0329    6.2866 O.3     1  UNL1       -0.3794
     31 O          20.3259   74.5331    6.1282 O.3     1  UNL1       -0.3794
     32 O          23.3920   71.6959    3.7956 O.3     1  UNL1       -0.3775
     33 C          21.9942   73.1675    5.0924 C.3     1  UNL1        0.1715
     34 C          21.3222   74.5419    5.1095 C.3     1  UNL1        0.1694
     35 C          22.9155   73.0346    3.8813 C.3     1  UNL1        0.1967
     36 C          20.6921   74.8674    3.7486 C.3     1  UNL1        0.1761
     37 C          22.2049   73.4284    2.5851 C.3     1  UNL1        0.2704
     38 H          22.1906   73.1158    7.0594 H       1  UNL1        0.2105
     39 H          20.7368   74.3259    6.9822 H       1  UNL1        0.2105
     40 H          23.8401   71.4588    4.6220 H       1  UNL1        0.2106
     41 O          21.2503   77.1845    3.5804 O.3     1  UNL1       -0.3794
     42 C          20.1542   76.2956    3.6943 C.3     1  UNL1        0.1693
     43 H          20.9230   78.0974    3.5445 H       1  UNL1        0.2105
@<TRIPOS>UNITY_ATOM_ATTR
2 1
charge -1
26 1
charge -1
@<TRIPOS>BOND
     1    25    28    1
     2    25    24    1
     3    25    26    1
     4    25    27    2
     5     1     4    1
     6     1    24    1
     7     1     2    1
     8     1     3    2
     9     6    11    1
    10     6    12    1
    11    29    36    1
    12    29    37    1
    13     7     9    1
    14     7    13    1
    15     8    10    1
    16     8    14    1
    17    28    37    1
    18     4     5    1
    19    30    33    1
    20    30    38    1
    21    31    34    1
    22    31    39    1
    23    32    35    1
    24    32    40    1
    25    41    42    1
    26    41    43    1
    27    15    19    2
    28    16    22    2
    29    17    12    1
    30    17    19   ar
    31    17    20   ar
    32    18    19   ar
    33    18    22   ar
    34    18    23    1
    35     9    10    1
    36     9    11    1
    37    10    12    1
    38    11     5    1
    39    33    34    1
    40    33    35    1
    41    34    36    1
    42    35    37    1
    43    36    42    1
    44    20    21   ar
    45    21    22   ar
@<TRIPOS>MOLECULE
*****
 43 45 0 0 0
SMALL
GASTEIGER

@<TRIPOS>ATOM
      1 P          20.6927   71.6575   -1.6803 P.3     1  UNL1        0.2189
      2 O          22.2724   71.7587   -2.0142 O.co2   1  UNL1       -0.4371
      3 O          20.3062   70.5186   -0.7831 O.2     1  UNL1       -0.5170
      4 O          19.9861   71.6764   -3.1357 O.3     1  UNL1       -0.3112
      5 C          19.2720   70.5267   -3.5556 C.3     1  UNL1        0.1811
      6 O          17.6296   71.5094   -5.0084 O.3     1  UNL1       -0.3308
      7 O          15.5781   70.1138   -3.3248 O.3     1  UNL1       -0.3794
      8 O          15.7526   68.4952   -5.5126 O.3     1  UNL1       -0.3779
      9 C          16.8797   69.6745   -3.7098 C.3     1  UNL1        0.1713
     10 C          16.8866   69.2646   -5.1677 C.3     1  UNL1        0.1895
     11 C          17.8016   70.8876   -3.7161 C.3     1  UNL1        0.1764
     12 C          16.9169   70.6099   -5.8730 C.3     1  UNL1        0.2383
     13 H          14.9716   69.3562   -3.3133 H       1  UNL1        0.2105
     14 H          15.7792   67.6495   -5.0386 H       1  UNL1        0.2106
     15 O          15.6101   70.6224   -8.3771 O.2     1  UNL1       -0.2464
     16 O          19.6017   70.3714  -10.6672 O.2     1  UNL1       -0.2670
     17 N          17.5901   70.5491   -7.1397 N.ar    1  UNL1       -0.2551
     18 N          17.5987   70.4976   -9.5153 N.ar    1  UNL1       -0.2743
     19 C          16.8407   70.5603   -8.3391 C.ar    1  UNL1        0.3323
     20 C          18.9783   70.4797   -7.1840 C.ar    1  UNL1        0.0869
     21 C          19.6861   70.4191   -8.3139 C.ar    1  UNL1        0.0795
     22 C          18.9794   70.4261   -9.6110 C.ar    1  UNL1        0.2626
     23 H          17.0979   70.5036  -10.3632 H       1  UNL1        0.1734
     24 O          20.3510   73.1237   -1.0915 O.3     1  UNL1       -0.2703
     25 P          21.3166   74.3028   -0.5529 P.3     1  UNL1        0.2208
     26 O          20.5422   75.6506   -1.0015 O.co2   1  UNL1       -0.4371
     27 O          22.7328   74.2102   -1.0425 O.2     1  UNL1       -0.5170
     28 O          21.1597   74.2578    1.0528 O.3     1  UNL1       -0.2858
     29 O          22.2347   72.2512    1.7121 O.3     1  UNL1       -0.3258
     30 O          21.0708   73.6276    5.4272 O.3     1  UNL1       -0.3794
     31 O          23.8428   73.7269    4.6828 O.3     1  UNL1       -0.3794
     32 O          19.3171   73.9627    3.1487 O.3     1  UNL1       -0.3775
     33 C          21.5289   73.7483    4.0777 C.3     1  UNL1        0.1715
     34 C          22.8577   73.0002    3.9536 C.3     1  UNL1        0.1694
     35 C          20.4837   73.1469    3.1401 C.3     1  UNL1        0.1967
     36 C          23.2778   72.8572    2.4846 C.3     1  UNL1        0.1761
     37 C          21.0197   73.0033    1.7146 C.3     1  UNL1        0.2704
     38 H          21.7297   74.0080    6.0277 H       1  UNL1        0.2105
     39 H          23.5652   73.8106    5.6086 H       1  UNL1        0.2105
     40 H          18.9873   74.0456    4.0566 H       1  UNL1        0.2106
     41 O          24.1999   70.6710    2.7661 O.3     1  UNL1       -0.3794
     42 C          24.5172   71.9790    2.3270 C.3     1  UNL1        0.1693
     43 H          24.9794   70.1008    2.6713 H       1  UNL1        0.2105
@<TRIPOS>UNITY_ATOM_ATTR
2 1
charge -1
26 1
charge -1
@<TRIPOS>BOND
     1    25    28    1
     2    25    24    1
     3    25    26    1
     4    25    27    2
     5     1     4    1
     6     1    24    1
     7     1     2    1
     8     1     3    2
     9     6    11    1
    10     6    12    1
    11    29    36    1
    12    29    37    1
    13     7     9    1
    14     7    13    1
    15     8    10    1
    16     8    14    1
    17    28    37    1
    18     4     5    1
    19    30    33    1
    20    30    38    1
    21    31    34    1
    22    31    39    1
    23    32    35    1
    24    32    40    1
    25    41    42    1
    26    41    43    1
    27    15    19    2
    28    16    22    2
    29    17    12    1
    30    17    19   ar
    31    17    20   ar
    32    18    19   ar
    33    18    22   ar
    34    18    23    1
    35     9    10    1
    36     9    11    1
    37    10    12    1
    38    11     5    1
    39    33    34    1
    40    33    35    1
    41    34    36    1
    42    35    37    1
    43    36    42    1
    44    20    21   ar
    45    21    22   ar
@<TRIPOS>MOLECULE
*****
 43 45 0 0 0
SMALL
GASTEIGER

@<TRIPOS>ATOM
      1 P          21.3994   71.5310   -1.4705 P.3     1  UNL1        0.2189
      2 O          22.8887   70.9775   -1.7755 O.co2   1  UNL1       -0.4371
      3 O          20.5257   70.5988   -0.6837 O.2     1  UNL1       -0.5170
      4 O          20.8383   71.9589   -2.9265 O.3     1  UNL1       -0.3112
      5 C          20.1183   71.0004   -3.6821 C.3     1  UNL1        0.1811
      6 O          18.2462   71.8788   -4.9058 O.3     1  UNL1       -0.3308
      7 O          16.5175   70.5659   -2.8373 O.3     1  UNL1       -0.3794
      8 O          16.3709   68.8217   -4.9284 O.3     1  UNL1       -0.3779
      9 C          17.7489   70.1172   -3.4007 C.3     1  UNL1        0.1713
     10 C          17.5304   69.6213   -4.8149 C.3     1  UNL1        0.1895
     11 C          18.6345   71.3367   -3.6245 C.3     1  UNL1        0.1764
     12 C          17.4218   70.9224   -5.5917 C.3     1  UNL1        0.2383
     13 H          15.9353   69.8045   -2.6851 H       1  UNL1        0.2105
     14 H          16.4892   68.0060   -4.4172 H       1  UNL1        0.2106
     15 O          15.7834   70.2036   -7.7773 O.2     1  UNL1       -0.2464
     16 O          19.3073   70.4546  -10.7372 O.2     1  UNL1       -0.2670
     17 N          17.8849   70.7929   -6.9445 N.ar    1  UNL1       -0.2551
     18 N          17.5393   70.3293   -9.2494 N.ar    1  UNL1       -0.2743
     19 C          16.9808   70.4259   -7.9684 C.ar    1  UNL1        0.3323
     20 C          19.2220   71.0290   -7.2449 C.ar    1  UNL1        0.0869
     21 C          19.7392   70.9314   -8.4714 C.ar    1  UNL1        0.0795
     22 C          18.8619   70.5528   -9.5979 C.ar    1  UNL1        0.2626
     23 H          16.9283   70.0747   -9.9785 H       1  UNL1        0.1734
     24 O          21.6796   72.9539   -0.7566 O.3     1  UNL1       -0.2703
     25 P          23.0009   73.5343   -0.0284 P.3     1  UNL1        0.2208
     26 O          23.3218   74.8831   -0.8621 O.co2   1  UNL1       -0.4371
     27 O          24.1429   72.5622    0.0401 O.2     1  UNL1       -0.5170
     28 O          22.4801   74.0566    1.4072 O.3     1  UNL1       -0.2858
     29 O          23.2987   73.7757    3.6134 O.3     1  UNL1       -0.3258
     30 O          19.2565   73.3696    4.3529 O.3     1  UNL1       -0.3794
     31 O          20.6183   75.7559    5.1893 O.3     1  UNL1       -0.3794
     32 O          20.4038   72.2467    1.9440 O.3     1  UNL1       -0.3775
     33 C          20.4153   73.8953    3.6999 C.3     1  UNL1        0.1715
     34 C          21.2907   74.5779    4.7528 C.3     1  UNL1        0.1694
     35 C          21.1734   72.7506    3.0304 C.3     1  UNL1        0.1967
     36 C          22.6706   74.9309    4.1815 C.3     1  UNL1        0.1761
     37 C          22.5526   73.1964    2.5413 C.3     1  UNL1        0.2704
     38 H          18.7704   74.0915    4.7796 H       1  UNL1        0.2105
     39 H          19.7482   75.5191    5.5472 H       1  UNL1        0.2105
     40 H          19.5332   71.9676    2.2667 H       1  UNL1        0.2106
     41 O          23.7327   74.4958    6.2771 O.3     1  UNL1       -0.3794
     42 C          23.6137   75.4687    5.2555 C.3     1  UNL1        0.1693
     43 H          24.3303   74.8242    6.9675 H       1  UNL1        0.2105
@<TRIPOS>UNITY_ATOM_ATTR
2 1
charge -1
26 1
charge -1
@<TRIPOS>BOND
     1    25    28    1
     2    25    24    1
     3    25    26    1
     4    25    27    2
     5     1     4    1
     6     1    24    1
     7     1     2    1
     8     1     3    2
     9     6    11    1
    10     6    12    1
    11    29    36    1
    12    29    37    1
    13     7     9    1
    14     7    13    1
    15     8    10    1
    16     8    14    1
    17    28    37    1
    18     4     5    1
    19    30    33    1
    20    30    38    1
    21    31    34    1
    22    31    39    1
    23    32    35    1
    24    32    40    1
    25    41    42    1
    26    41    43    1
    27    15    19    2
    28    16    22    2
    29    17    12    1
    30    17    19   ar
    31    17    20   ar
    32    18    19   ar
    33    18    22   ar
    34    18    23    1
    35     9    10    1
    36     9    11    1
    37    10    12    1
    38    11     5    1
    39    33    34    1
    40    33    35    1
    41    34    36    1
    42    35    37    1
    43    36    42    1
    44    20    21   ar
    45    21    22   ar
@<TRIPOS>MOLECULE
*****
 43 45 0 0 0
SMALL
GASTEIGER

@<TRIPOS>ATOM
      1 P          22.7976   72.6117   -3.8857 P.3     1  UNL1        0.2189
      2 O          22.1944   71.1327   -3.6285 O.co2   1  UNL1       -0.4371
      3 O          24.2402   72.6451   -4.2974 O.2     1  UNL1       -0.5170
      4 O          22.4344   73.4201   -2.5321 O.3     1  UNL1       -0.3112
      5 C          21.2957   74.2635   -2.5332 C.3     1  UNL1        0.1811
      6 O          20.7402   72.4512   -1.0565 O.3     1  UNL1       -0.3308
      7 O          18.2743   74.0132   -0.3706 O.3     1  UNL1       -0.3794
      8 O          19.9099   74.5228    1.7511 O.3     1  UNL1       -0.3779
      9 C          19.5897   74.4844   -0.6587 C.3     1  UNL1        0.1713
     10 C          20.5130   74.2143    0.5110 C.3     1  UNL1        0.1895
     11 C          20.1807   73.5922   -1.7432 C.3     1  UNL1        0.1764
     12 C          20.7969   72.7303    0.3520 C.3     1  UNL1        0.2383
     13 H          17.8762   74.5679    0.3192 H       1  UNL1        0.2105
     14 H          19.7494   75.4778    1.8041 H       1  UNL1        0.2106
     15 O          21.5480   70.1042    1.0714 O.2     1  UNL1       -0.2464
     16 O          25.7987   71.4450    2.2441 O.2     1  UNL1       -0.2670
     17 N          22.0937   72.3646    0.8479 N.ar    1  UNL1       -0.2551
     18 N          23.6639   70.7739    1.6545 N.ar    1  UNL1       -0.2743
     19 C          22.3683   71.0178    1.1813 C.ar    1  UNL1        0.3323
     20 C          23.0771   73.3362    0.9991 C.ar    1  UNL1        0.0869
     21 C          24.3073   73.0875    1.4529 C.ar    1  UNL1        0.0795
     22 C          24.6757   71.7058    1.8236 C.ar    1  UNL1        0.2626
     23 H          23.8779   69.8428    1.8934 H       1  UNL1        0.1734
     24 O          21.7743   73.2383   -4.9689 O.3     1  UNL1       -0.2703
     25 P          21.8317   73.2791   -6.5838 P.3     1  UNL1        0.2208
     26 O          23.0084   72.2273   -6.9399 O.co2   1  UNL1       -0.4371
     27 O          22.0333   74.6516   -7.1579 O.2     1  UNL1       -0.5170
     28 O          20.4738   72.5479   -7.0594 O.3     1  UNL1       -0.2858
     29 O          20.0732   70.4348   -6.0640 O.3     1  UNL1       -0.3258
     30 O          17.3372   70.2394   -9.1506 O.3     1  UNL1       -0.3794
     31 O          16.4115   70.6006   -6.4561 O.3     1  UNL1       -0.3794
     32 O          19.9233   71.4640   -9.5887 O.3     1  UNL1       -0.3775
     33 C          18.1014   70.8801   -8.1255 C.3     1  UNL1        0.1715
     34 C          17.7472   70.2304   -6.7864 C.3     1  UNL1        0.1694
     35 C          19.5884   70.7080   -8.4300 C.3     1  UNL1        0.1967
     36 C          18.7142   70.6765   -5.6813 C.3     1  UNL1        0.1761
     37 C          20.4602   71.1352   -7.2478 C.3     1  UNL1        0.2704
     38 H          16.3921   70.3455   -8.9635 H       1  UNL1        0.2105
     39 H          15.8112   70.3137   -7.1621 H       1  UNL1        0.2105
     40 H          19.3648   71.1840  -10.3300 H       1  UNL1        0.2106
     41 O          19.7287   69.4904   -3.8722 O.3     1  UNL1       -0.3794
     42 C          18.4775   69.9214   -4.3752 C.3     1  UNL1        0.1693
     43 H          19.5937   69.0085   -3.0408 H       1  UNL1        0.2105
@<TRIPOS>UNITY_ATOM_ATTR
2 1
charge -1
26 1
charge -1
@<TRIPOS>BOND
     1    25    28    1
     2    25    24    1
     3    25    26    1
     4    25    27    2
     5     1     4    1
     6     1    24    1
     7     1     2    1
     8     1     3    2
     9     6    11    1
    10     6    12    1
    11    29    36    1
    12    29    37    1
    13     7     9    1
    14     7    13    1
    15     8    10    1
    16     8    14    1
    17    28    37    1
    18     4     5    1
    19    30    33    1
    20    30    38    1
    21    31    34    1
    22    31    39    1
    23    32    35    1
    24    32    40    1
    25    41    42    1
    26    41    43    1
    27    15    19    2
    28    16    22    2
    29    17    12    1
    30    17    19   ar
    31    17    20   ar
    32    18    19   ar
    33    18    22   ar
    34    18    23    1
    35     9    10    1
    36     9    11    1
    37    10    12    1
    38    11     5    1
    39    33    34    1
    40    33    35    1
    41    34    36    1
    42    35    37    1
    43    36    42    1
    44    20    21   ar
    45    21    22   ar
@<TRIPOS>MOLECULE
*****
 43 45 0 0 0
SMALL
GASTEIGER

@<TRIPOS>ATOM
      1 P          23.2805   72.1813   -3.6088 P.3     1  UNL1        0.2189
      2 O          23.8937   70.7206   -3.2806 O.co2   1  UNL1       -0.4371
      3 O          24.2490   73.1534   -4.2159 O.2     1  UNL1       -0.5170
      4 O          22.6052   72.6417   -2.2124 O.3     1  UNL1       -0.3112
      5 C          23.4226   72.7131   -1.0572 C.3     1  UNL1        0.1811
      6 O          24.4290   71.2406    0.5531 O.3     1  UNL1       -0.3308
      7 O          21.6631   70.1926    1.0452 O.3     1  UNL1       -0.3794
      8 O          22.0446   71.8773    3.1554 O.3     1  UNL1       -0.3779
      9 C          22.0844   71.5233    0.7503 C.3     1  UNL1        0.1713
     10 C          22.7501   72.1445    1.9606 C.3     1  UNL1        0.1895
     11 C          23.2389   71.4412   -0.2405 C.3     1  UNL1        0.1764
     12 C          24.1226   71.4936    1.9340 C.3     1  UNL1        0.2383
     13 H          20.9260   70.2193    1.6761 H       1  UNL1        0.2105
     14 H          21.1784   72.3127    3.1239 H       1  UNL1        0.2106
     15 O          26.7787   70.6748    2.4366 O.2     1  UNL1       -0.2464
     16 O          27.9424   74.8238    4.0714 O.2     1  UNL1       -0.2670
     17 N          25.1407   72.3395    2.4902 N.ar    1  UNL1       -0.2551
     18 N          27.3560   72.7414    3.2500 N.ar    1  UNL1       -0.2743
     19 C          26.4428   71.8304    2.7039 C.ar    1  UNL1        0.3323
     20 C          24.8438   73.6581    2.8172 C.ar    1  UNL1        0.0869
     21 C          25.7256   74.5137    3.3384 C.ar    1  UNL1        0.0795
     22 C          27.1085   74.0612    3.5929 C.ar    1  UNL1        0.2626
     23 H          28.2693   72.4088    3.4080 H       1  UNL1        0.1734
     24 O          22.0012   71.8387   -4.5355 O.3     1  UNL1       -0.2703
     25 P          20.5157   72.4750   -4.5717 P.3     1  UNL1        0.2208
     26 O          20.7930   74.0680   -4.5169 O.co2   1  UNL1       -0.4371
     27 O          19.6026   71.9679   -3.4932 O.2     1  UNL1       -0.5170
     28 O          19.9917   72.2039   -6.0740 O.3     1  UNL1       -0.2858
     29 O          19.1004   70.0106   -6.1809 O.3     1  UNL1       -0.3258
     30 O          18.8071   71.0371  -10.1698 O.3     1  UNL1       -0.3794
     31 O          16.4290   70.8813   -8.5672 O.3     1  UNL1       -0.3794
     32 O          21.1082   71.8779   -8.6278 O.3     1  UNL1       -0.3775
     33 C          18.7812   71.2705   -8.7590 C.3     1  UNL1        0.1715
     34 C          17.6958   70.3833   -8.1461 C.3     1  UNL1        0.1694
     35 C          20.1494   70.9298   -8.1715 C.3     1  UNL1        0.1967
     36 C          17.7852   70.3771   -6.6141 C.3     1  UNL1        0.1761
     37 C          20.1166   70.9029   -6.6423 C.3     1  UNL1        0.2704
     38 H          17.9414   71.2520  -10.5491 H       1  UNL1        0.2105
     39 H          16.3858   70.8805   -9.5364 H       1  UNL1        0.2105
     40 H          21.1195   71.8851   -9.5972 H       1  UNL1        0.2106
     41 O          16.1415   70.0141   -4.9183 O.3     1  UNL1       -0.3794
     42 C          16.8148   69.3774   -5.9886 C.3     1  UNL1        0.1693
     43 H          15.5202   69.3898   -4.5109 H       1  UNL1        0.2105
@<TRIPOS>UNITY_ATOM_ATTR
2 1
charge -1
26 1
charge -1
@<TRIPOS>BOND
     1    25    28    1
     2    25    24    1
     3    25    26    1
     4    25    27    2
     5     1     4    1
     6     1    24    1
     7     1     2    1
     8     1     3    2
     9     6    11    1
    10     6    12    1
    11    29    36    1
    12    29    37    1
    13     7     9    1
    14     7    13    1
    15     8    10    1
    16     8    14    1
    17    28    37    1
    18     4     5    1
    19    30    33    1
    20    30    38    1
    21    31    34    1
    22    31    39    1
    23    32    35    1
    24    32    40    1
    25    41    42    1
    26    41    43    1
    27    15    19    2
    28    16    22    2
    29    17    12    1
    30    17    19   ar
    31    17    20   ar
    32    18    19   ar
    33    18    22   ar
    34    18    23    1
    35     9    10    1
    36     9    11    1
    37    10    12    1
    38    11     5    1
    39    33    34    1
    40    33    35    1
    41    34    36    1
    42    35    37    1
    43    36    42    1
    44    20    21   ar
    45    21    22   ar
@<TRIPOS>MOLECULE
*****
 43 45 0 0 0
SMALL
GASTEIGER

@<TRIPOS>ATOM
      1 P          21.6352   71.8918   -5.6446 P.3     1  UNL1        0.2189
      2 O          23.1290   72.5072   -5.7290 O.co2   1  UNL1       -0.4371
      3 O          21.4292   70.8742   -4.5614 O.2     1  UNL1       -0.5170
      4 O          21.3388   71.3835   -7.1518 O.3     1  UNL1       -0.3112
      5 C          20.1601   71.8328   -7.7973 C.3     1  UNL1        0.1811
      6 O          18.9280   69.8306   -7.3005 O.3     1  UNL1       -0.3308
      7 O          17.9493   69.9539  -10.1320 O.3     1  UNL1       -0.3794
      8 O          15.8355   70.9531   -8.7285 O.3     1  UNL1       -0.3779
      9 C          18.2152   71.0201   -9.2221 C.3     1  UNL1        0.1713
     10 C          17.1263   71.0995   -8.1726 C.3     1  UNL1        0.1895
     11 C          19.4317   70.6343   -8.3899 C.3     1  UNL1        0.1764
     12 C          17.4974   69.9538   -7.2463 C.3     1  UNL1        0.2383
     13 H          17.1765   70.1775  -10.6749 H       1  UNL1        0.2105
     14 H          15.6463   71.7061   -9.3098 H       1  UNL1        0.2106
     15 O          15.9785   68.1597   -5.6804 O.2     1  UNL1       -0.2464
     16 O          16.0357   70.9950   -2.0474 O.2     1  UNL1       -0.2670
     17 N          17.1015   70.1976   -5.8879 N.ar    1  UNL1       -0.2551
     18 N          16.0084   69.5729   -3.8726 N.ar    1  UNL1       -0.2743
     19 C          16.3386   69.2321   -5.1905 C.ar    1  UNL1        0.3323
     20 C          17.4696   71.3830   -5.2609 C.ar    1  UNL1        0.0869
     21 C          17.1456   71.6934   -4.0039 C.ar    1  UNL1        0.0795
     22 C          16.3496   70.7388   -3.2057 C.ar    1  UNL1        0.2626
     23 H          15.4769   68.9156   -3.3674 H       1  UNL1        0.1734
     24 O          20.7064   73.2086   -5.5160 O.3     1  UNL1       -0.2703
     25 P          20.6916   74.3940   -4.4171 P.3     1  UNL1        0.2208
     26 O          19.1959   74.9978   -4.5428 O.co2   1  UNL1       -0.4371
     27 O          21.7853   75.4077   -4.5908 O.2     1  UNL1       -0.5170
     28 O          20.7054   73.6322   -2.9943 O.3     1  UNL1       -0.2858
     29 O          20.8974   74.2788   -0.7223 O.3     1  UNL1       -0.3258
     30 O          23.5508   71.1149   -0.7343 O.3     1  UNL1       -0.3794
     31 O          21.0082   70.8282    0.5700 O.3     1  UNL1       -0.3794
     32 O          23.4122   72.8919   -3.0153 O.3     1  UNL1       -0.3775
     33 C          22.3733   71.8294   -1.1197 C.3     1  UNL1        0.1715
     34 C          21.5323   72.0794    0.1337 C.3     1  UNL1        0.1694
     35 C          22.7812   73.1520   -1.7661 C.3     1  UNL1        0.1967
     36 C          20.3921   73.0660   -0.1519 C.3     1  UNL1        0.1761
     37 C          21.5802   74.0791   -1.9616 C.3     1  UNL1        0.2704
     38 H          23.2988   70.2739   -0.3237 H       1  UNL1        0.2105
     39 H          21.7384   70.2143    0.7464 H       1  UNL1        0.2105
     40 H          24.1709   72.3042   -2.8780 H       1  UNL1        0.2106
     41 O          19.2160   74.7975    1.0003 O.3     1  UNL1       -0.3794
     42 C          19.6373   73.4511    1.1185 C.3     1  UNL1        0.1693
     43 H          18.7339   75.0564    1.8017 H       1  UNL1        0.2105
@<TRIPOS>UNITY_ATOM_ATTR
2 1
charge -1
26 1
charge -1
@<TRIPOS>BOND
     1    25    28    1
     2    25    24    1
     3    25    26    1
     4    25    27    2
     5     1     4    1
     6     1    24    1
     7     1     2    1
     8     1     3    2
     9     6    11    1
    10     6    12    1
    11    29    36    1
    12    29    37    1
    13     7     9    1
    14     7    13    1
    15     8    10    1
    16     8    14    1
    17    28    37    1
    18     4     5    1
    19    30    33    1
    20    30    38    1
    21    31    34    1
    22    31    39    1
    23    32    35    1
    24    32    40    1
    25    41    42    1
    26    41    43    1
    27    15    19    2
    28    16    22    2
    29    17    12    1
    30    17    19   ar
    31    17    20   ar
    32    18    19   ar
    33    18    22   ar
    34    18    23    1
    35     9    10    1
    36     9    11    1
    37    10    12    1
    38    11     5    1
    39    33    34    1
    40    33    35    1
    41    34    36    1
    42    35    37    1
    43    36    42    1
    44    20    21   ar
    45    21    22   ar
@<TRIPOS>MOLECULE
*****
 43 45 0 0 0
SMALL
GASTEIGER

@<TRIPOS>ATOM
      1 P          20.4324   72.2345   -1.0020 P.3     1  UNL1        0.2189
      2 O          20.2641   70.6429   -1.2381 O.co2   1  UNL1       -0.4371
      3 O          19.2120   72.9294   -0.4738 O.2     1  UNL1       -0.5170
      4 O          20.9939   72.7800   -2.4180 O.3     1  UNL1       -0.3112
      5 C          20.3423   72.3690   -3.6073 C.3     1  UNL1        0.1811
      6 O          20.7524   70.8984   -5.4629 O.3     1  UNL1       -0.3308
      7 O          23.2079   72.5399   -5.9796 O.3     1  UNL1       -0.3794
      8 O          21.4505   73.5004   -7.8304 O.3     1  UNL1       -0.3779
      9 C          21.9270   72.9561   -5.5092 C.3     1  UNL1        0.1713
     10 C          20.9223   72.9470   -6.6424 C.3     1  UNL1        0.1895
     11 C          21.3853   71.8642   -4.5950 C.3     1  UNL1        0.1764
     12 C          20.6108   71.4660   -6.7754 C.3     1  UNL1        0.2383
     13 H          23.5742   73.2215   -6.5654 H       1  UNL1        0.2105
     14 H          21.6321   74.4435   -7.6952 H       1  UNL1        0.2106
     15 O          19.9256   69.5441   -8.7286 O.2     1  UNL1       -0.2464
     16 O          15.4544   70.6385   -8.5007 O.2     1  UNL1       -0.2670
     17 N          19.2751   71.2272   -7.2450 N.ar    1  UNL1       -0.2551
     18 N          17.6998   70.0905   -8.6134 N.ar    1  UNL1       -0.2743
     19 C          19.0386   70.2395   -8.2293 C.ar    1  UNL1        0.3323
     20 C          18.2168   71.9681   -6.7302 C.ar    1  UNL1        0.0869
     21 C          16.9460   71.8147   -7.1081 C.ar    1  UNL1        0.0795
     22 C          16.6132   70.8035   -8.1322 C.ar    1  UNL1        0.2626
     23 H          17.5111   69.4085   -9.2982 H       1  UNL1        0.1734
     24 O          21.7275   72.3242   -0.0388 O.3     1  UNL1       -0.2703
     25 P          22.1931   71.3995    1.2026 P.3     1  UNL1        0.2208
     26 O          23.8038   71.5514    1.1947 O.co2   1  UNL1       -0.4371
     27 O          21.7044   69.9818    1.1313 O.2     1  UNL1       -0.5170
     28 O          21.7140   72.2069    2.5155 O.3     1  UNL1       -0.2858
     29 O          20.9940   74.4410    2.8427 O.3     1  UNL1       -0.3258
     30 O          23.2772   73.9776    6.2520 O.3     1  UNL1       -0.3794
     31 O          20.4138   74.0490    6.4619 O.3     1  UNL1       -0.3794
     32 O          24.1588   72.8102    3.7541 O.3     1  UNL1       -0.3775
     33 C          22.3919   73.5586    5.2098 C.3     1  UNL1        0.1715
     34 C          21.1259   74.4146    5.2831 C.3     1  UNL1        0.1694
     35 C          23.0866   73.7404    3.8616 C.3     1  UNL1        0.1967
     36 C          20.2462   74.2099    4.0423 C.3     1  UNL1        0.1761
     37 C          22.1122   73.5634    2.6957 C.3     1  UNL1        0.2704
     38 H          22.8423   73.8642    7.1108 H       1  UNL1        0.2105
     39 H          20.9805   74.1825    7.2379 H       1  UNL1        0.2105
     40 H          24.7687   72.9327    4.4976 H       1  UNL1        0.2106
     41 O          17.8655   74.4066    3.9933 O.3     1  UNL1       -0.3794
     42 C          19.0581   75.1691    4.0191 C.3     1  UNL1        0.1693
     43 H          17.1009   75.0040    3.9786 H       1  UNL1        0.2105
@<TRIPOS>UNITY_ATOM_ATTR
2 1
charge -1
26 1
charge -1
@<TRIPOS>BOND
     1    25    28    1
     2    25    24    1
     3    25    26    1
     4    25    27    2
     5     1     4    1
     6     1    24    1
     7     1     2    1
     8     1     3    2
     9     6    11    1
    10     6    12    1
    11    29    36    1
    12    29    37    1
    13     7     9    1
    14     7    13    1
    15     8    10    1
    16     8    14    1
    17    28    37    1
    18     4     5    1
    19    30    33    1
    20    30    38    1
    21    31    34    1
    22    31    39    1
    23    32    35    1
    24    32    40    1
    25    41    42    1
    26    41    43    1
    27    15    19    2
    28    16    22    2
    29    17    12    1
    30    17    19   ar
    31    17    20   ar
    32    18    19   ar
    33    18    22   ar
    34    18    23    1
    35     9    10    1
    36     9    11    1
    37    10    12    1
    38    11     5    1
    39    33    34    1
    40    33    35    1
    41    34    36    1
    42    35    37    1
    43    36    42    1
    44    20    21   ar
    45    21    22   ar
@<TRIPOS>MOLECULE
*****
 43 45 0 0 0
SMALL
GASTEIGER

@<TRIPOS>ATOM
      1 P          22.9390   72.5106   -4.3406 P.3     1  UNL1        0.2189
      2 O          23.2517   72.6033   -5.9252 O.co2   1  UNL1       -0.4371
      3 O          23.7579   71.5012   -3.5910 O.2     1  UNL1       -0.5170
      4 O          21.3356   72.3047   -4.2726 O.3     1  UNL1       -0.3112
      5 C          20.8291   71.1483   -3.6290 C.3     1  UNL1        0.1811
      6 O          18.7305   71.8284   -4.5814 O.3     1  UNL1       -0.3308
      7 O          17.4373   70.3699   -2.3029 O.3     1  UNL1       -0.3794
      8 O          17.1794   68.6021   -4.3632 O.3     1  UNL1       -0.3779
      9 C          18.6186   70.0394   -3.0313 C.3     1  UNL1        0.1713
     10 C          18.2592   69.5125   -4.4049 C.3     1  UNL1        0.1895
     11 C          19.3412   71.3379   -3.3678 C.3     1  UNL1        0.1764
     12 C          17.9183   70.7900   -5.1532 C.3     1  UNL1        0.2383
     13 H          16.9590   69.5563   -2.0764 H       1  UNL1        0.2105
     14 H          17.4458   67.8062   -3.8769 H       1  UNL1        0.2106
     15 O          16.0990   69.8310   -7.0892 O.2     1  UNL1       -0.2464
     16 O          19.1205   70.4690  -10.5105 O.2     1  UNL1       -0.2670
     17 N          18.2032   70.6950   -6.5572 N.ar    1  UNL1       -0.2551
     18 N          17.6049   70.1496   -8.7912 N.ar    1  UNL1       -0.2743
     19 C          17.2206   70.1986   -7.4451 C.ar    1  UNL1        0.3323
     20 C          19.4452   71.0919   -7.0407 C.ar    1  UNL1        0.0869
     21 C          19.7965   71.0377   -8.3271 C.ar    1  UNL1        0.0795
     22 C          18.8275   70.5313   -9.3205 C.ar    1  UNL1        0.2626
     23 H          16.9366   69.8069   -9.4282 H       1  UNL1        0.1734
     24 O          23.1308   74.0363   -3.8423 O.3     1  UNL1       -0.2703
     25 P          24.3489   74.7510   -3.0560 P.3     1  UNL1        0.2208
     26 O          23.7792   76.2361   -2.7604 O.co2   1  UNL1       -0.4371
     27 O          25.6567   74.7247   -3.7929 O.2     1  UNL1       -0.5170
     28 O          24.3806   74.0316   -1.6115 O.3     1  UNL1       -0.2858
     29 O          22.4134   73.1073   -0.6668 O.3     1  UNL1       -0.3258
     30 O          24.6021   73.6727    2.7887 O.3     1  UNL1       -0.3794
     31 O          24.2042   71.0128    1.7816 O.3     1  UNL1       -0.3794
     32 O          24.7236   75.6361    0.6651 O.3     1  UNL1       -0.3775
     33 C          24.4070   73.3661    1.4055 C.3     1  UNL1        0.1715
     34 C          23.4852   72.1488    1.3095 C.3     1  UNL1        0.1694
     35 C          23.7785   74.5726    0.7106 C.3     1  UNL1        0.1967
     36 C          23.0155   71.9220   -0.1337 C.3     1  UNL1        0.1761
     37 C          23.3016   74.2262   -0.7010 C.3     1  UNL1        0.2704
     38 H          25.0014   72.9109    3.2357 H       1  UNL1        0.2105
     39 H          24.4955   71.1691    2.6937 H       1  UNL1        0.2105
     40 H          25.0175   75.8461    1.5647 H       1  UNL1        0.2106
     41 O          21.6949   70.3430    1.0794 O.3     1  UNL1       -0.3794
     42 C          21.9723   70.8107   -0.2277 C.3     1  UNL1        0.1693
     43 H          21.0322   69.6355    1.0352 H       1  UNL1        0.2105
@<TRIPOS>UNITY_ATOM_ATTR
2 1
charge -1
26 1
charge -1
@<TRIPOS>BOND
     1    25    28    1
     2    25    24    1
     3    25    26    1
     4    25    27    2
     5     1     4    1
     6     1    24    1
     7     1     2    1
     8     1     3    2
     9     6    11    1
    10     6    12    1
    11    29    36    1
    12    29    37    1
    13     7     9    1
    14     7    13    1
    15     8    10    1
    16     8    14    1
    17    28    37    1
    18     4     5    1
    19    30    33    1
    20    30    38    1
    21    31    34    1
    22    31    39    1
    23    32    35    1
    24    32    40    1
    25    41    42    1
    26    41    43    1
    27    15    19    2
    28    16    22    2
    29    17    12    1
    30    17    19   ar
    31    17    20   ar
    32    18    19   ar
    33    18    22   ar
    34    18    23    1
    35     9    10    1
    36     9    11    1
    37    10    12    1
    38    11     5    1
    39    33    34    1
    40    33    35    1
    41    34    36    1
    42    35    37    1
    43    36    42    1
    44    20    21   ar
    45    21    22   ar
@<TRIPOS>MOLECULE
*****
 43 45 0 0 0
SMALL
GASTEIGER

@<TRIPOS>ATOM
      1 P          22.0597   74.3756   -5.6154 P.3     1  UNL1        0.2189
      2 O          20.9340   75.5356   -5.5481 O.co2   1  UNL1       -0.4371
      3 O          23.1377   74.5971   -6.6354 O.2     1  UNL1       -0.5170
      4 O          21.2037   73.0128   -5.7824 O.3     1  UNL1       -0.3112
      5 C          20.6708   72.7011   -7.0578 C.3     1  UNL1        0.1811
      6 O          19.8552   70.7039   -5.9996 O.3     1  UNL1       -0.3308
      7 O          20.0310   69.4230   -8.7051 O.3     1  UNL1       -0.3794
      8 O          17.3702   69.9766   -8.4813 O.3     1  UNL1       -0.3779
      9 C          19.6689   70.7595   -8.3614 C.3     1  UNL1        0.1713
     10 C          18.2770   70.7904   -7.7655 C.3     1  UNL1        0.1895
     11 C          20.5301   71.1901   -7.1806 C.3     1  UNL1        0.1764
     12 C          18.5270   70.2858   -6.3545 C.3     1  UNL1        0.2383
     13 H          19.4944   69.1261   -9.4573 H       1  UNL1        0.2105
     14 H          17.2442   70.3389   -9.3721 H       1  UNL1        0.2106
     15 O          16.6035   68.7656   -4.9520 O.2     1  UNL1       -0.2464
     16 O          15.0126   72.4818   -2.7385 O.2     1  UNL1       -0.2670
     17 N          17.5976   70.8304   -5.4053 N.ar    1  UNL1       -0.2551
     18 N          15.8130   70.6172   -3.8508 N.ar    1  UNL1       -0.2743
     19 C          16.6715   69.9808   -4.7564 C.ar    1  UNL1        0.3323
     20 C          17.6105   72.1926   -5.1260 C.ar    1  UNL1        0.0869
     21 C          16.7843   72.7842   -4.2607 C.ar    1  UNL1        0.0795
     22 C          15.7862   71.9676   -3.5402 C.ar    1  UNL1        0.2626
     23 H          15.1591   70.0453   -3.3872 H       1  UNL1        0.1734
     24 O          22.5851   74.2899   -4.0891 O.3     1  UNL1       -0.2703
     25 P          23.8678   73.5436   -3.4483 P.3     1  UNL1        0.2208
     26 O          25.0055   74.6939   -3.4499 O.co2   1  UNL1       -0.4371
     27 O          24.2629   72.2808   -4.1577 O.2     1  UNL1       -0.5170
     28 O          23.4900   73.3461   -1.8917 O.3     1  UNL1       -0.2858
     29 O          21.1265   73.4602   -1.7605 O.3     1  UNL1       -0.3258
     30 O          21.9869   72.9720    2.2485 O.3     1  UNL1       -0.3794
     31 O          20.8311   70.7971    0.7712 O.3     1  UNL1       -0.3794
     32 O          23.6929   74.6275    0.5967 O.3     1  UNL1       -0.3775
     33 C          22.1701   72.7777    0.8435 C.3     1  UNL1        0.1715
     34 C          20.9028   72.1325    0.2792 C.3     1  UNL1        0.1694
     35 C          22.4251   74.1306    0.1816 C.3     1  UNL1        0.1967
     36 C          20.9152   72.1366   -1.2553 C.3     1  UNL1        0.1761
     37 C          22.3676   74.0328   -1.3440 C.3     1  UNL1        0.2704
     38 H          21.8250   72.1167    2.6748 H       1  UNL1        0.2105
     39 H          20.8245   70.8086    1.7413 H       1  UNL1        0.2105
     40 H          23.7164   74.6851    1.5642 H       1  UNL1        0.2106
     41 O          19.4944   70.2485   -1.6096 O.3     1  UNL1       -0.3794
     42 C          19.5936   71.6420   -1.8392 C.3     1  UNL1        0.1693
     43 H          18.6579   69.9199   -1.9757 H       1  UNL1        0.2105
@<TRIPOS>UNITY_ATOM_ATTR
2 1
charge -1
26 1
charge -1
@<TRIPOS>BOND
     1    25    28    1
     2    25    24    1
     3    25    26    1
     4    25    27    2
     5     1     4    1
     6     1    24    1
     7     1     2    1
     8     1     3    2
     9     6    11    1
    10     6    12    1
    11    29    36    1
    12    29    37    1
    13     7     9    1
    14     7    13    1
    15     8    10    1
    16     8    14    1
    17    28    37    1
    18     4     5    1
    19    30    33    1
    20    30    38    1
    21    31    34    1
    22    31    39    1
    23    32    35    1
    24    32    40    1
    25    41    42    1
    26    41    43    1
    27    15    19    2
    28    16    22    2
    29    17    12    1
    30    17    19   ar
    31    17    20   ar
    32    18    19   ar
    33    18    22   ar
    34    18    23    1
    35     9    10    1
    36     9    11    1
    37    10    12    1
    38    11     5    1
    39    33    34    1
    40    33    35    1
    41    34    36    1
    42    35    37    1
    43    36    42    1
    44    20    21   ar
    45    21    22   ar
@<TRIPOS>MOLECULE
*****
 43 45 0 0 0
SMALL
GASTEIGER

@<TRIPOS>ATOM
      1 P          20.7238   72.1302   -3.4988 P.3     1  UNL1        0.2189
      2 O          20.7580   70.5734   -3.0601 O.co2   1  UNL1       -0.4371
      3 O          21.3385   72.4256   -4.8353 O.2     1  UNL1       -0.5170
      4 O          21.3790   72.9036   -2.2377 O.3     1  UNL1       -0.3112
      5 C          20.7230   74.0549   -1.7355 C.3     1  UNL1        0.1811
      6 O          20.4247   72.4686    0.0445 O.3     1  UNL1       -0.3308
      7 O          18.6221   74.5058    1.3061 O.3     1  UNL1       -0.3794
      8 O          20.9424   74.8182    2.7043 O.3     1  UNL1       -0.3779
      9 C          19.8172   74.7022    0.5522 C.3     1  UNL1        0.1713
     10 C          21.0289   74.3302    1.3810 C.3     1  UNL1        0.1895
     11 C          19.8531   73.6533   -0.5523 C.3     1  UNL1        0.1764
     12 C          21.0022   72.8126    1.3146 C.3     1  UNL1        0.2383
     13 H          18.5768   75.1645    2.0174 H       1  UNL1        0.2105
     14 H          20.9634   75.7878    2.6936 H       1  UNL1        0.2106
     15 O          21.5499   70.0490    1.1132 O.2     1  UNL1       -0.2464
     16 O          26.0764   70.7197    1.6627 O.2     1  UNL1       -0.2670
     17 N          22.3149   72.2374    1.4011 N.ar    1  UNL1       -0.2551
     18 N          23.8033   70.3852    1.3868 N.ar    1  UNL1       -0.2743
     19 C          22.4813   70.8374    1.2882 C.ar    1  UNL1        0.3323
     20 C          23.4200   73.0589    1.5953 C.ar    1  UNL1        0.0869
     21 C          24.6741   72.6119    1.6885 C.ar    1  UNL1        0.0795
     22 C          24.9346   71.1618    1.5810 C.ar    1  UNL1        0.2626
     23 H          23.9435   69.4134    1.3115 H       1  UNL1        0.1734
     24 O          19.1562   72.5066   -3.3814 O.3     1  UNL1       -0.2703
     25 P          17.8315   71.5898   -3.5143 P.3     1  UNL1        0.2208
     26 O          16.6250   72.6535   -3.3395 O.co2   1  UNL1       -0.4371
     27 O          17.7832   70.4356   -2.5554 O.2     1  UNL1       -0.5170
     28 O          17.7809   71.1684   -5.0714 O.3     1  UNL1       -0.2858
     29 O          18.9301   72.2527   -6.8378 O.3     1  UNL1       -0.3258
     30 O          15.6532   70.8682   -8.9345 O.3     1  UNL1       -0.3794
     31 O          18.2141   69.6285   -9.3257 O.3     1  UNL1       -0.3794
     32 O          15.3253   71.8659   -6.2370 O.3     1  UNL1       -0.3775
     33 C          16.6759   70.8213   -7.9358 C.3     1  UNL1        0.1715
     34 C          18.0344   70.8635   -8.6382 C.3     1  UNL1        0.1694
     35 C          16.5163   72.0192   -7.0014 C.3     1  UNL1        0.1967
     36 C          19.1717   71.0854   -7.6320 C.3     1  UNL1        0.1761
     37 C          17.7237   72.1781   -6.0756 C.3     1  UNL1        0.2704
     38 H          15.7486   70.1100   -9.5308 H       1  UNL1        0.2105
     39 H          17.4892   69.5003   -9.9576 H       1  UNL1        0.2105
     40 H          14.5683   71.7665   -6.8344 H       1  UNL1        0.2106
     41 O          21.5471   70.9446   -7.4166 O.3     1  UNL1       -0.3794
     42 C          20.5172   71.2881   -8.3252 C.3     1  UNL1        0.1693
     43 H          22.4094   71.0684   -7.8442 H       1  UNL1        0.2105
@<TRIPOS>UNITY_ATOM_ATTR
2 1
charge -1
26 1
charge -1
@<TRIPOS>BOND
     1    25    28    1
     2    25    24    1
     3    25    26    1
     4    25    27    2
     5     1     4    1
     6     1    24    1
     7     1     2    1
     8     1     3    2
     9     6    11    1
    10     6    12    1
    11    29    36    1
    12    29    37    1
    13     7     9    1
    14     7    13    1
    15     8    10    1
    16     8    14    1
    17    28    37    1
    18     4     5    1
    19    30    33    1
    20    30    38    1
    21    31    34    1
    22    31    39    1
    23    32    35    1
    24    32    40    1
    25    41    42    1
    26    41    43    1
    27    15    19    2
    28    16    22    2
    29    17    12    1
    30    17    19   ar
    31    17    20   ar
    32    18    19   ar
    33    18    22   ar
    34    18    23    1
    35     9    10    1
    36     9    11    1
    37    10    12    1
    38    11     5    1
    39    33    34    1
    40    33    35    1
    41    34    36    1
    42    35    37    1
    43    36    42    1
    44    20    21   ar
    45    21    22   ar
@<TRIPOS>MOLECULE
*****
 43 45 0 0 0
SMALL
GASTEIGER

@<TRIPOS>ATOM
      1 P          20.7677   71.7544   -3.0227 P.3     1  UNL1        0.2189
      2 O          21.1140   70.7651   -1.7903 O.co2   1  UNL1       -0.4371
      3 O          20.0246   73.0019   -2.6445 O.2     1  UNL1       -0.5170
      4 O          20.0290   70.7945   -4.0955 O.3     1  UNL1       -0.3112
      5 C          19.2073   69.7464   -3.6117 C.3     1  UNL1        0.1811
      6 O          17.5831   71.0467   -4.8136 O.3     1  UNL1       -0.3308
      7 O          15.5037   69.4594   -3.3481 O.3     1  UNL1       -0.3794
      8 O          15.5525   68.2584   -5.7960 O.3     1  UNL1       -0.3779
      9 C          16.7740   69.0411   -3.8449 C.3     1  UNL1        0.1713
     10 C          16.7294   68.9025   -5.3523 C.3     1  UNL1        0.1895
     11 C          17.7529   70.1939   -3.6602 C.3     1  UNL1        0.1764
     12 C          16.8092   70.3508   -5.8044 C.3     1  UNL1        0.2383
     13 H          14.8618   68.7394   -3.4550 H       1  UNL1        0.2105
     14 H          15.5486   67.3404   -5.4831 H       1  UNL1        0.2106
     15 O          15.9301   72.0892   -7.8496 O.2     1  UNL1       -0.2464
     16 O          19.3492   70.8066  -10.6613 O.2     1  UNL1       -0.2670
     17 N          17.4511   70.4915   -7.0809 N.ar    1  UNL1       -0.2551
     18 N          17.6333   71.4493   -9.2479 N.ar    1  UNL1       -0.2743
     19 C          16.9289   71.3918   -8.0386 C.ar    1  UNL1        0.3323
     20 C          18.5856   69.7419   -7.3725 C.ar    1  UNL1        0.0869
     21 C          19.2450   69.8074   -8.5310 C.ar    1  UNL1        0.0795
     22 C          18.7648   70.7237   -9.5855 C.ar    1  UNL1        0.2626
     23 H          17.2876   72.0694   -9.9303 H       1  UNL1        0.1734
     24 O          22.2129   72.0113   -3.6998 O.3     1  UNL1       -0.2703
     25 P          23.3639   73.0960   -3.3657 P.3     1  UNL1        0.2208
     26 O          22.5932   74.5112   -3.5098 O.co2   1  UNL1       -0.4371
     27 O          24.5934   72.9708   -4.2181 O.2     1  UNL1       -0.5170
     28 O          23.6290   72.9356   -1.7817 O.3     1  UNL1       -0.2858
     29 O          22.1910   73.0069    0.1008 O.3     1  UNL1       -0.3258
     30 O          25.4076   75.0829    1.6484 O.3     1  UNL1       -0.3794
     31 O          24.8736   72.4117    2.5581 O.3     1  UNL1       -0.3794
     32 O          24.6336   75.4694   -1.1140 O.3     1  UNL1       -0.3775
     33 C          24.7615   74.0853    0.8530 C.3     1  UNL1        0.1715
     34 C          23.9549   73.1779    1.7840 C.3     1  UNL1        0.1694
     35 C          23.8438   74.7701   -0.1581 C.3     1  UNL1        0.1967
     36 C          23.0257   72.2523    0.9872 C.3     1  UNL1        0.1761
     37 C          22.9276   73.7661   -0.8599 C.3     1  UNL1        0.2704
     38 H          25.9921   74.6547    2.2922 H       1  UNL1        0.2105
     39 H          25.4548   73.0081    3.0560 H       1  UNL1        0.2105
     40 H          25.2089   76.1020   -0.6573 H       1  UNL1        0.2106
     41 O          21.5852   70.3542    1.1640 O.3     1  UNL1       -0.3794
     42 C          22.0987   71.4504    1.8982 C.3     1  UNL1        0.1693
     43 H          20.9937   69.8345    1.7313 H       1  UNL1        0.2105
@<TRIPOS>UNITY_ATOM_ATTR
2 1
charge -1
26 1
charge -1
@<TRIPOS>BOND
     1    25    28    1
     2    25    24    1
     3    25    26    1
     4    25    27    2
     5     1     4    1
     6     1    24    1
     7     1     2    1
     8     1     3    2
     9     6    11    1
    10     6    12    1
    11    29    36    1
    12    29    37    1
    13     7     9    1
    14     7    13    1
    15     8    10    1
    16     8    14    1
    17    28    37    1
    18     4     5    1
    19    30    33    1
    20    30    38    1
    21    31    34    1
    22    31    39    1
    23    32    35    1
    24    32    40    1
    25    41    42    1
    26    41    43    1
    27    15    19    2
    28    16    22    2
    29    17    12    1
    30    17    19   ar
    31    17    20   ar
    32    18    19   ar
    33    18    22   ar
    34    18    23    1
    35     9    10    1
    36     9    11    1
    37    10    12    1
    38    11     5    1
    39    33    34    1
    40    33    35    1
    41    34    36    1
    42    35    37    1
    43    36    42    1
    44    20    21   ar
    45    21    22   ar
@<TRIPOS>MOLECULE
*****
 43 45 0 0 0
SMALL
GASTEIGER

@<TRIPOS>ATOM
      1 P          22.7780   72.2806   -3.7289 P.3     1  UNL1        0.2189
      2 O          22.3892   70.7348   -3.4522 O.co2   1  UNL1       -0.4371
      3 O          24.1933   72.5087   -4.1718 O.2     1  UNL1       -0.5170
      4 O          22.3354   73.0414   -2.3713 O.3     1  UNL1       -0.3112
      5 C          22.3827   74.4573   -2.3435 C.3     1  UNL1        0.1811
      6 O          21.2295   73.9152   -0.3063 O.3     1  UNL1       -0.3308
      7 O          20.8366   76.8679    0.0371 O.3     1  UNL1       -0.3794
      8 O          22.9206   76.3463    1.7168 O.3     1  UNL1       -0.3779
      9 C          21.9520   76.1633   -0.5057 C.3     1  UNL1        0.1713
     10 C          22.7426   75.4975    0.6011 C.3     1  UNL1        0.1895
     11 C          21.4181   74.9649   -1.2805 C.3     1  UNL1        0.1764
     12 C          21.8816   74.2868    0.9190 C.3     1  UNL1        0.2383
     13 H          21.1526   77.6380    0.5362 H       1  UNL1        0.2105
     14 H          23.4748   77.1010    1.4639 H       1  UNL1        0.2106
     15 O          20.8311   72.1357    2.4180 O.2     1  UNL1       -0.2464
     16 O          24.9433   70.0712    2.6807 O.2     1  UNL1       -0.2670
     17 N          22.6551   73.1735    1.3919 N.ar    1  UNL1       -0.2551
     18 N          22.8794   71.1094    2.5474 N.ar    1  UNL1       -0.2743
     19 C          22.0314   72.1459    2.1371 C.ar    1  UNL1        0.3323
     20 C          24.0164   73.1083    1.1154 C.ar    1  UNL1        0.0869
     21 C          24.8115   72.1136    1.5150 C.ar    1  UNL1        0.0795
     22 C          24.2385   71.0002    2.2987 C.ar    1  UNL1        0.2626
     23 H          22.4670   70.3825    3.0684 H       1  UNL1        0.1734
     24 O          21.6559   72.7529   -4.7923 O.3     1  UNL1       -0.2703
     25 P          20.0476   72.8530   -4.6644 P.3     1  UNL1        0.2208
     26 O          19.7758   74.4478   -4.6417 O.co2   1  UNL1       -0.4371
     27 O          19.4762   72.1107   -3.4913 O.2     1  UNL1       -0.5170
     28 O          19.4925   72.3653   -6.0994 O.3     1  UNL1       -0.2858
     29 O          18.6343   70.1599   -5.9719 O.3     1  UNL1       -0.3258
     30 O          18.5030   70.6835  -10.0658 O.3     1  UNL1       -0.3794
     31 O          16.0592   70.6834   -8.5572 O.3     1  UNL1       -0.3794
     32 O          20.7237   71.7481   -8.5444 O.3     1  UNL1       -0.3775
     33 C          18.4124   71.0878   -8.6969 C.3     1  UNL1        0.1715
     34 C          17.3125   70.2634   -8.0252 C.3     1  UNL1        0.1694
     35 C          19.7578   70.8463   -8.0150 C.3     1  UNL1        0.1967
     36 C          17.3348   70.4470   -6.5017 C.3     1  UNL1        0.1761
     37 C          19.6585   71.0068   -6.4970 C.3     1  UNL1        0.2704
     38 H          17.6521   70.8347  -10.5046 H       1  UNL1        0.2105
     39 H          16.0584   70.5627   -9.5198 H       1  UNL1        0.2105
     40 H          20.7774   71.6364   -9.5059 H       1  UNL1        0.2106
     41 O          17.0781   68.4465   -5.2207 O.3     1  UNL1       -0.3794
     42 C          16.3506   69.5146   -5.7988 C.3     1  UNL1        0.1693
     43 H          16.4645   67.8450   -4.7695 H       1  UNL1        0.2105
@<TRIPOS>UNITY_ATOM_ATTR
2 1
charge -1
26 1
charge -1
@<TRIPOS>BOND
     1    25    28    1
     2    25    24    1
     3    25    26    1
     4    25    27    2
     5     1     4    1
     6     1    24    1
     7     1     2    1
     8     1     3    2
     9     6    11    1
    10     6    12    1
    11    29    36    1
    12    29    37    1
    13     7     9    1
    14     7    13    1
    15     8    10    1
    16     8    14    1
    17    28    37    1
    18     4     5    1
    19    30    33    1
    20    30    38    1
    21    31    34    1
    22    31    39    1
    23    32    35    1
    24    32    40    1
    25    41    42    1
    26    41    43    1
    27    15    19    2
    28    16    22    2
    29    17    12    1
    30    17    19   ar
    31    17    20   ar
    32    18    19   ar
    33    18    22   ar
    34    18    23    1
    35     9    10    1
    36     9    11    1
    37    10    12    1
    38    11     5    1
    39    33    34    1
    40    33    35    1
    41    34    36    1
    42    35    37    1
    43    36    42    1
    44    20    21   ar
    45    21    22   ar
