@<TRIPOS>MOLECULE
UD2
 46 48 0 0 0
SMALL
GASTEIGER

@<TRIPOS>ATOM
      1 P          22.1817   71.0786   -2.8319 P.3     1  UNL1        0.2189
      2 O          21.6650   69.5542   -2.8492 O.3     1  UNL1       -0.4371
      3 O          23.3946   71.1986   -3.6706 O.2     1  UNL1       -0.5170
      4 O          21.0297   72.0422   -3.4132 O.3     1  UNL1       -0.3112
      5 C          19.9889   72.5873   -2.6001 C.3     1  UNL1        0.1811
      6 C          17.8496   71.4794   -5.2707 C.3     1  UNL1        0.2383
      7 C          17.9966   70.2413   -4.3500 C.3     1  UNL1        0.1895
      8 O          16.8208   69.4305   -4.3939 O.3     1  UNL1       -0.3779
      9 C          18.1675   70.8916   -2.9553 C.3     1  UNL1        0.1713
     10 C          18.6344   72.3270   -3.2638 C.3     1  UNL1        0.1764
     11 O          18.7595   72.4389   -4.6904 O.3     1  UNL1       -0.3308
     12 O          16.9212   70.9097   -2.2572 O.3     1  UNL1       -0.3794
     13 H          16.8646   68.6432   -3.8345 H       1  UNL1        0.2106
     14 H          16.5512   70.0327   -2.0886 H       1  UNL1        0.2105
     15 N          18.2486   71.1530   -6.6416 N.ar    1  UNL1       -0.2551
     16 C          17.3166   70.7770   -7.5354 C.ar    1  UNL1        0.3323
     17 N          17.6548   70.4711   -8.8020 N.ar    1  UNL1       -0.2743
     18 C          18.9427   70.5397   -9.1960 C.ar    1  UNL1        0.2626
     19 C          19.9340   70.9350   -8.2659 C.ar    1  UNL1        0.0795
     20 C          19.5659   71.2401   -7.0037 C.ar    1  UNL1        0.0869
     21 O          16.1514   70.7110   -7.1941 O.2     1  UNL1       -0.2464
     22 O          19.2501   70.2635  -10.3421 O.2     1  UNL1       -0.2670
     23 H          16.9704   70.2007   -9.4333 H       1  UNL1        0.1734
     24 O          22.5294   71.5106   -1.3200 O.3     1  UNL1       -0.2703
     25 P          22.5126   70.7412    0.0944 P.3     1  UNL1        0.2208
     26 O          21.1576   69.8799    0.2201 O.3     1  UNL1       -0.4371
     27 O          23.6806   69.8372    0.1784 O.2     1  UNL1       -0.5170
     28 O          22.5785   71.8165    1.2910 O.3     1  UNL1       -0.2865
     29 C          21.6707   72.9142    1.4021 C.3     1  UNL1        0.2611
     30 C          22.3959   74.2150    1.0490 C.3     1  UNL1        0.1582
     31 C          23.5298   74.4459    2.0526 C.3     1  UNL1        0.1625
     32 C          22.9468   74.4722    3.4681 C.3     1  UNL1        0.1686
     33 C          22.2003   73.1610    3.7280 C.3     1  UNL1        0.1760
     34 O          24.1659   75.6955    1.7747 O.3     1  UNL1       -0.3801
     35 O          22.0414   75.5705    3.5915 O.3     1  UNL1       -0.3794
     36 O          21.1799   72.9922    2.7420 O.3     1  UNL1       -0.3263
     37 H          24.8959   75.9063    2.3729 H       1  UNL1        0.2105
     38 H          21.6328   75.6480    4.4650 H       1  UNL1        0.2105
     39 C          22.5773   74.9937   -1.2528 C.2     1  UNL1        0.2231
     40 C          23.1482   74.8908   -2.6428 C.3     1  UNL1        0.0946
     41 N          22.9514   74.1141   -0.3029 N.am    1  UNL1       -0.2994
     42 O          21.7799   75.8690   -0.9877 O.2     1  UNL1       -0.2751
     43 H          23.5881   73.4135   -0.5148 H       1  UNL1        0.1496
     44 C          21.5641   73.2037    5.1187 C.3     1  UNL1        0.1693
     45 O          22.5904   73.1983    6.1132 O.3     1  UNL1       -0.3794
     46 H          22.2590   73.2241    7.0212 H       1  UNL1        0.2105
@<TRIPOS>BOND
     1    29    30    1
     2    30    41    1
     3    30    31    1
     4    31    34    1
     5    31    32    1
     6    32    35    1
     7    32    33    1
     8    33    36    1
     9    33    44    1
    10    39    40    1
    11    39    42    2
    12    39    41   am
    13    41    43    1
    14    29    28    1
    15    34    37    1
    16    35    38    1
    17    29    36    1
    18    44    45    1
    19    45    46    1
    20    15     6    1
    21    15    16   ar
    22    16    21    2
    23    16    17   ar
    24    17    23    1
    25    17    18   ar
    26    18    19   ar
    27    19    20   ar
    28    15    20   ar
    29    18    22    2
    30     6     7    1
    31     6    11    1
    32     7     9    1
    33     7     8    1
    34     8    13    1
    35     9    10    1
    36     9    12    1
    37    10     5    1
    38    10    11    1
    39    12    14    1
    40     5     4    1
    41     4     1    1
    42     1     2    1
    43     1    24    1
    44     1     3    2
    45    24    25    1
    46    28    25    1
    47    25    26    1
    48    25    27    2
@<TRIPOS>MOLECULE
UD2
 46 48 0 0 0
SMALL
GASTEIGER

@<TRIPOS>ATOM
      1 P          21.9212   70.8227   -0.4322 P.3     1  UNL1        0.2189
      2 O          21.7341   69.5266    0.5040 O.3     1  UNL1       -0.4371
      3 O          23.0980   70.6333   -1.3086 O.2     1  UNL1       -0.5170
      4 O          20.6048   71.0252   -1.3375 O.3     1  UNL1       -0.3112
      5 C          20.6006   71.7938   -2.5419 C.3     1  UNL1        0.1811
      6 C          18.1565   71.2845   -5.1311 C.3     1  UNL1        0.2383
      7 C          18.1432   69.9653   -4.3176 C.3     1  UNL1        0.1895
      8 O          16.8463   69.3658   -4.3392 O.3     1  UNL1       -0.3779
      9 C          18.5006   70.4575   -2.8938 C.3     1  UNL1        0.1713
     10 C          19.1861   71.8175   -3.1265 C.3     1  UNL1        0.1764
     11 O          19.2474   72.0283   -4.5461 O.3     1  UNL1       -0.3308
     12 O          17.3170   70.6210   -2.1107 O.3     1  UNL1       -0.3794
     13 H          16.7874   68.5374   -3.8444 H       1  UNL1        0.2106
     14 H          16.8138   69.8057   -1.9822 H       1  UNL1        0.2105
     15 N          18.4161   71.0148   -6.5470 N.ar    1  UNL1       -0.2551
     16 C          17.3849   70.8219   -7.3886 C.ar    1  UNL1        0.3323
     17 N          17.5941   70.5720   -8.6948 N.ar    1  UNL1       -0.2743
     18 C          18.8503   70.5131   -9.1818 C.ar    1  UNL1        0.2626
     19 C          19.9451   70.7152   -8.3074 C.ar    1  UNL1        0.0795
     20 C          19.7059   70.9681   -7.0034 C.ar    1  UNL1        0.0869
     21 O          16.2470   70.8724   -6.9634 O.2     1  UNL1       -0.2464
     22 O          19.0409   70.2874  -10.3639 O.2     1  UNL1       -0.2670
     23 H          16.8393   70.4341   -9.2876 H       1  UNL1        0.1734
     24 O          22.1426   72.1240    0.4904 O.3     1  UNL1       -0.2703
     25 P          21.2839   72.8257    1.6579 P.3     1  UNL1        0.2208
     26 O          20.0803   73.6723    1.0033 O.3     1  UNL1       -0.4371
     27 O          20.7265   71.7879    2.5526 O.2     1  UNL1       -0.5170
     28 O          22.2348   73.8110    2.5050 O.3     1  UNL1       -0.2865
     29 C          23.0407   73.3660    3.5976 C.3     1  UNL1        0.2611
     30 C          22.4628   73.9007    4.9102 C.3     1  UNL1        0.1582
     31 C          22.5086   75.4317    4.8919 C.3     1  UNL1        0.1625
     32 C          23.9532   75.8860    4.6660 C.3     1  UNL1        0.1686
     33 C          24.4737   75.2746    3.3624 C.3     1  UNL1        0.1760
     34 O          22.0389   75.9382    6.1434 O.3     1  UNL1       -0.3801
     35 O          24.7669   75.4506    5.7566 O.3     1  UNL1       -0.3794
     36 O          24.3749   73.8508    3.4332 O.3     1  UNL1       -0.3263
     37 H          22.0398   76.9034    6.2019 H       1  UNL1        0.2105
     38 H          25.6975   75.7036    5.6794 H       1  UNL1        0.2105
     39 C          20.0650   74.2577    4.6636 C.2     1  UNL1        0.2231
     40 C          18.6377   73.7991    4.8085 C.3     1  UNL1        0.0946
     41 N          21.0747   73.4540    5.0517 N.am    1  UNL1       -0.2994
     42 O          20.3065   75.3515    4.1973 O.2     1  UNL1       -0.2751
     43 H          20.8821   72.5798    5.4255 H       1  UNL1        0.1496
     44 C          25.9361   75.6753    3.1597 C.3     1  UNL1        0.1693
     45 O          26.2354   75.6974    1.7624 O.3     1  UNL1       -0.3794
     46 H          27.1480   75.9440    1.5590 H       1  UNL1        0.2105
@<TRIPOS>BOND
     1    29    30    1
     2    30    41    1
     3    30    31    1
     4    31    34    1
     5    31    32    1
     6    32    35    1
     7    32    33    1
     8    33    36    1
     9    33    44    1
    10    39    40    1
    11    39    42    2
    12    39    41   am
    13    41    43    1
    14    29    28    1
    15    34    37    1
    16    35    38    1
    17    29    36    1
    18    44    45    1
    19    45    46    1
    20    15     6    1
    21    15    16   ar
    22    16    21    2
    23    16    17   ar
    24    17    23    1
    25    17    18   ar
    26    18    19   ar
    27    19    20   ar
    28    15    20   ar
    29    18    22    2
    30     6     7    1
    31     6    11    1
    32     7     9    1
    33     7     8    1
    34     8    13    1
    35     9    10    1
    36     9    12    1
    37    10     5    1
    38    10    11    1
    39    12    14    1
    40     5     4    1
    41     4     1    1
    42     1     2    1
    43     1    24    1
    44     1     3    2
    45    24    25    1
    46    28    25    1
    47    25    26    1
    48    25    27    2
@<TRIPOS>MOLECULE
UD2
 46 48 0 0 0
SMALL
GASTEIGER

@<TRIPOS>ATOM
      1 P          22.9441   72.1145   -3.3325 P.3     1  UNL1        0.2189
      2 O          23.4267   70.5788   -3.3188 O.3     1  UNL1       -0.4371
      3 O          23.6652   72.8494   -4.3949 O.2     1  UNL1       -0.5170
      4 O          21.3602   72.1765   -3.6172 O.3     1  UNL1       -0.3112
      5 C          20.3789   71.9397   -2.6060 C.3     1  UNL1        0.1811
      6 C          18.0434   71.3256   -5.2715 C.3     1  UNL1        0.2383
      7 C          18.0305   70.0216   -4.4339 C.3     1  UNL1        0.1895
      8 O          16.7493   69.3915   -4.4908 O.3     1  UNL1       -0.3779
      9 C          18.3243   70.5482   -3.0078 C.3     1  UNL1        0.1713
     10 C          18.9866   71.9193   -3.2417 C.3     1  UNL1        0.1764
     11 O          19.0950   72.1054   -4.6620 O.3     1  UNL1       -0.3308
     12 O          17.1095   70.6981   -2.2713 O.3     1  UNL1       -0.3794
     13 H          16.6913   68.5711   -3.9826 H       1  UNL1        0.2106
     14 H          16.6206   69.8738   -2.1455 H       1  UNL1        0.2105
     15 N          18.3607   71.0361   -6.6717 N.ar    1  UNL1       -0.2551
     16 C          17.3662   70.7926   -7.5438 C.ar    1  UNL1        0.3323
     17 N          17.6287   70.5236   -8.8365 N.ar    1  UNL1       -0.2743
     18 C          18.9023   70.4960   -9.2789 C.ar    1  UNL1        0.2626
     19 C          19.9589   70.7514   -8.3721 C.ar    1  UNL1        0.0795
     20 C          19.6665   71.0225   -7.0827 C.ar    1  UNL1        0.0869
     21 O          16.2131   70.8144   -7.1589 O.2     1  UNL1       -0.2464
     22 O          19.1412   70.2530  -10.4487 O.2     1  UNL1       -0.2670
     23 H          16.8999   70.3491   -9.4517 H       1  UNL1        0.1734
     24 O          23.2587   72.7890   -1.9044 O.3     1  UNL1       -0.2703
     25 P          23.3635   74.3096   -1.3852 P.3     1  UNL1        0.2208
     26 O          24.8222   74.8961   -1.7343 O.3     1  UNL1       -0.4371
     27 O          22.3297   75.1312   -2.0520 O.2     1  UNL1       -0.5170
     28 O          23.1359   74.3494    0.2083 O.3     1  UNL1       -0.2865
     29 C          21.8564   74.1650    0.8168 C.3     1  UNL1        0.2611
     30 C          21.9613   74.4353    2.3196 C.3     1  UNL1        0.1582
     31 C          22.9245   73.4222    2.9459 C.3     1  UNL1        0.1625
     32 C          22.4261   72.0062    2.6442 C.3     1  UNL1        0.1686
     33 C          22.3033   71.8295    1.1284 C.3     1  UNL1        0.1760
     34 O          22.9721   73.6205    4.3607 O.3     1  UNL1       -0.3801
     35 O          21.1489   71.8095    3.2535 O.3     1  UNL1       -0.3794
     36 O          21.4179   72.8214    0.6050 O.3     1  UNL1       -0.3263
     37 H          23.5648   73.0121    4.8230 H       1  UNL1        0.2105
     38 H          20.7713   70.9316    3.1026 H       1  UNL1        0.2105
     39 C          23.7911   76.0030    2.6826 C.2     1  UNL1        0.2231
     40 C          24.3127   77.3980    2.9073 C.3     1  UNL1        0.0946
     41 N          22.4679   75.7925    2.5385 N.am    1  UNL1       -0.2994
     42 O          24.5624   75.0678    2.6311 O.2     1  UNL1       -0.2751
     43 H          21.8508   76.5398    2.5805 H       1  UNL1        0.1496
     44 C          21.7491   70.4371    0.8208 C.3     1  UNL1        0.1693
     45 O          22.8269   69.5025    0.7366 O.3     1  UNL1       -0.3794
     46 H          22.5486   68.5968    0.5433 H       1  UNL1        0.2105
@<TRIPOS>BOND
     1    29    30    1
     2    30    41    1
     3    30    31    1
     4    31    34    1
     5    31    32    1
     6    32    35    1
     7    32    33    1
     8    33    36    1
     9    33    44    1
    10    39    40    1
    11    39    42    2
    12    39    41   am
    13    41    43    1
    14    29    28    1
    15    34    37    1
    16    35    38    1
    17    29    36    1
    18    44    45    1
    19    45    46    1
    20    15     6    1
    21    15    16   ar
    22    16    21    2
    23    16    17   ar
    24    17    23    1
    25    17    18   ar
    26    18    19   ar
    27    19    20   ar
    28    15    20   ar
    29    18    22    2
    30     6     7    1
    31     6    11    1
    32     7     9    1
    33     7     8    1
    34     8    13    1
    35     9    10    1
    36     9    12    1
    37    10     5    1
    38    10    11    1
    39    12    14    1
    40     5     4    1
    41     4     1    1
    42     1     2    1
    43     1    24    1
    44     1     3    2
    45    24    25    1
    46    28    25    1
    47    25    26    1
    48    25    27    2
@<TRIPOS>MOLECULE
UD2
 46 48 0 0 0
SMALL
GASTEIGER

@<TRIPOS>ATOM
      1 P          22.0094   70.8908   -2.7496 P.3     1  UNL1        0.2189
      2 O          23.5236   70.6605   -3.2451 O.3     1  UNL1       -0.4371
      3 O          21.4124   69.5927   -2.3658 O.2     1  UNL1       -0.5170
      4 O          22.0054   71.8802   -1.4789 O.3     1  UNL1       -0.3112
      5 C          22.5845   71.5310   -0.2203 C.3     1  UNL1        0.1811
      6 C          22.5352   73.8937    2.4912 C.3     1  UNL1        0.2383
      7 C          22.1939   74.7349    1.2350 C.3     1  UNL1        0.1895
      8 O          21.3353   75.8268    1.5702 O.3     1  UNL1       -0.3779
      9 C          21.4562   73.7052    0.3445 C.3     1  UNL1        0.1713
     10 C          21.9118   72.3391    0.8921 C.3     1  UNL1        0.1764
     11 O          22.8516   72.5934    1.9483 O.3     1  UNL1       -0.3308
     12 O          20.0416   73.8520    0.4793 O.3     1  UNL1       -0.3794
     13 H          21.0939   76.3831    0.8173 H       1  UNL1        0.2106
     14 H          19.7071   74.7163    0.2043 H       1  UNL1        0.2105
     15 N          23.6925   74.4568    3.1903 N.ar    1  UNL1       -0.2551
     16 C          23.8189   74.2821    4.5178 C.ar    1  UNL1        0.3323
     17 N          24.8720   74.7887    5.1860 N.ar    1  UNL1       -0.2743
     18 C          25.8233   75.4823    4.5284 C.ar    1  UNL1        0.2626
     19 C          25.7034   75.6729    3.1307 C.ar    1  UNL1        0.0795
     20 C          24.6393   75.1503    2.4856 C.ar    1  UNL1        0.0869
     21 O          22.9689   73.6586    5.1237 O.2     1  UNL1       -0.2464
     22 O          26.7771   75.9410    5.1320 O.2     1  UNL1       -0.2670
     23 H          24.9471   74.6545    6.1434 H       1  UNL1        0.1734
     24 O          21.1481   71.5464   -3.9420 O.3     1  UNL1       -0.2703
     25 P          21.3925   72.7765   -4.9519 P.3     1  UNL1        0.2208
     26 O          21.0905   74.1633   -4.1907 O.3     1  UNL1       -0.4371
     27 O          22.7977   72.7640   -5.4141 O.2     1  UNL1       -0.5170
     28 O          20.4090   72.6341   -6.2189 O.3     1  UNL1       -0.2865
     29 C          20.3302   71.4495   -7.0139 C.3     1  UNL1        0.2611
     30 C          20.1944   71.8323   -8.4896 C.3     1  UNL1        0.1582
     31 C          18.8915   72.6131   -8.6878 C.3     1  UNL1        0.1625
     32 C          17.7180   71.7595   -8.1991 C.3     1  UNL1        0.1686
     33 C          17.9494   71.3794   -6.7342 C.3     1  UNL1        0.1760
     34 O          18.7201   72.9111  -10.0752 O.3     1  UNL1       -0.3801
     35 O          17.6268   70.5743   -8.9919 O.3     1  UNL1       -0.3794
     36 O          19.1917   70.6835   -6.6148 O.3     1  UNL1       -0.3263
     37 H          17.9136   73.4063  -10.2740 H       1  UNL1        0.2105
     38 H          16.9036   69.9845   -8.7369 H       1  UNL1        0.2105
     39 C          21.2516   74.0090   -8.7766 C.2     1  UNL1        0.2231
     40 C          22.4197   74.8688   -9.1825 C.3     1  UNL1        0.0946
     41 N          21.3310   72.6680   -8.8849 N.am    1  UNL1       -0.2994
     42 O          20.2382   74.5234   -8.3517 O.2     1  UNL1       -0.2751
     43 H          22.1406   72.2564   -9.2255 H       1  UNL1        0.1496
     44 C          16.8106   70.4767   -6.2558 C.3     1  UNL1        0.1693
     45 O          16.7921   70.4487   -4.8271 O.3     1  UNL1       -0.3794
     46 H          16.0938   69.8942   -4.4530 H       1  UNL1        0.2105
@<TRIPOS>BOND
     1    29    30    1
     2    30    41    1
     3    30    31    1
     4    31    34    1
     5    31    32    1
     6    32    35    1
     7    32    33    1
     8    33    36    1
     9    33    44    1
    10    39    40    1
    11    39    42    2
    12    39    41   am
    13    41    43    1
    14    29    28    1
    15    34    37    1
    16    35    38    1
    17    29    36    1
    18    44    45    1
    19    45    46    1
    20    15     6    1
    21    15    16   ar
    22    16    21    2
    23    16    17   ar
    24    17    23    1
    25    17    18   ar
    26    18    19   ar
    27    19    20   ar
    28    15    20   ar
    29    18    22    2
    30     6     7    1
    31     6    11    1
    32     7     9    1
    33     7     8    1
    34     8    13    1
    35     9    10    1
    36     9    12    1
    37    10     5    1
    38    10    11    1
    39    12    14    1
    40     5     4    1
    41     4     1    1
    42     1     2    1
    43     1    24    1
    44     1     3    2
    45    24    25    1
    46    28    25    1
    47    25    26    1
    48    25    27    2
@<TRIPOS>MOLECULE
UD2
 46 48 0 0 0
SMALL
GASTEIGER

@<TRIPOS>ATOM
      1 P          22.5149   71.6215   -2.5877 P.3     1  UNL1        0.2189
      2 O          22.6382   71.2959   -1.0160 O.3     1  UNL1       -0.4371
      3 O          23.2544   70.6012   -3.3630 O.2     1  UNL1       -0.5170
      4 O          20.9634   71.6031   -3.0192 O.3     1  UNL1       -0.3112
      5 C          19.9997   72.5179   -2.4939 C.3     1  UNL1        0.1811
      6 C          17.8721   71.4688   -5.1974 C.3     1  UNL1        0.2383
      7 C          18.0004   70.2161   -4.2938 C.3     1  UNL1        0.1895
      8 O          16.8177   69.4169   -4.3589 O.3     1  UNL1       -0.3779
      9 C          18.1659   70.8444   -2.8883 C.3     1  UNL1        0.1713
     10 C          18.6483   72.2798   -3.1720 C.3     1  UNL1        0.1764
     11 O          18.7860   72.4114   -4.5958 O.3     1  UNL1       -0.3308
     12 O          16.9142   70.8638   -2.2000 O.3     1  UNL1       -0.3794
     13 H          16.8497   68.6212   -3.8108 H       1  UNL1        0.2106
     14 H          16.5349   69.9878   -2.0472 H       1  UNL1        0.2105
     15 N          18.2792   71.1589   -6.5697 N.ar    1  UNL1       -0.2551
     16 C          17.3514   70.8020   -7.4756 C.ar    1  UNL1        0.3323
     17 N          17.6971   70.5115   -8.7438 N.ar    1  UNL1       -0.2743
     18 C          18.9884   70.5765   -9.1271 C.ar    1  UNL1        0.2626
     19 C          19.9754   70.9517   -8.1841 C.ar    1  UNL1        0.0795
     20 C          19.5998   71.2416   -6.9206 C.ar    1  UNL1        0.0869
     21 O          16.1833   70.7395   -7.1440 O.2     1  UNL1       -0.2464
     22 O          19.3025   70.3141  -10.2747 O.2     1  UNL1       -0.2670
     23 H          17.0156   70.2548   -9.3839 H       1  UNL1        0.1734
     24 O          23.1366   73.0769   -2.8850 O.3     1  UNL1       -0.2703
     25 P          23.0840   74.0790   -4.1444 P.3     1  UNL1        0.2208
     26 O          23.0780   73.2246   -5.5095 O.3     1  UNL1       -0.4371
     27 O          21.8553   74.8995   -4.0712 O.2     1  UNL1       -0.5170
     28 O          24.3748   75.0412   -4.1187 O.3     1  UNL1       -0.2865
     29 C          25.6091   74.6717   -3.5012 C.3     1  UNL1        0.2611
     30 C          25.8579   75.5634   -2.2823 C.3     1  UNL1        0.1582
     31 C          25.9856   77.0187   -2.7426 C.3     1  UNL1        0.1625
     32 C          27.1118   77.1194   -3.7751 C.3     1  UNL1        0.1686
     33 C          26.8145   76.1676   -4.9368 C.3     1  UNL1        0.1760
     34 O          26.2911   77.8493   -1.6201 O.3     1  UNL1       -0.3801
     35 O          28.3522   76.7572   -3.1657 O.3     1  UNL1       -0.3794
     36 O          26.6771   74.8361   -4.4363 O.3     1  UNL1       -0.3263
     37 H          26.3855   78.7865   -1.8389 H       1  UNL1        0.2105
     38 H          29.1117   76.7977   -3.7637 H       1  UNL1        0.2105
     39 C          24.9638   75.3810   -0.0228 C.2     1  UNL1        0.2231
     40 C          23.8097   75.2561    0.9368 C.3     1  UNL1        0.0946
     41 N          24.7347   75.4416   -1.3495 N.am    1  UNL1       -0.2994
     42 O          26.1008   75.4271    0.3983 O.2     1  UNL1       -0.2751
     43 H          23.8259   75.4038   -1.6866 H       1  UNL1        0.1496
     44 C          27.9646   76.2180   -5.9443 C.3     1  UNL1        0.1693
     45 O          27.5764   75.5480   -7.1454 O.3     1  UNL1       -0.3794
     46 H          28.2588   75.5407   -7.8305 H       1  UNL1        0.2105
@<TRIPOS>BOND
     1    29    30    1
     2    30    41    1
     3    30    31    1
     4    31    34    1
     5    31    32    1
     6    32    35    1
     7    32    33    1
     8    33    36    1
     9    33    44    1
    10    39    40    1
    11    39    42    2
    12    39    41   am
    13    41    43    1
    14    29    28    1
    15    34    37    1
    16    35    38    1
    17    29    36    1
    18    44    45    1
    19    45    46    1
    20    15     6    1
    21    15    16   ar
    22    16    21    2
    23    16    17   ar
    24    17    23    1
    25    17    18   ar
    26    18    19   ar
    27    19    20   ar
    28    15    20   ar
    29    18    22    2
    30     6     7    1
    31     6    11    1
    32     7     9    1
    33     7     8    1
    34     8    13    1
    35     9    10    1
    36     9    12    1
    37    10     5    1
    38    10    11    1
    39    12    14    1
    40     5     4    1
    41     4     1    1
    42     1     2    1
    43     1    24    1
    44     1     3    2
    45    24    25    1
    46    28    25    1
    47    25    26    1
    48    25    27    2
@<TRIPOS>MOLECULE
UD2
 46 48 0 0 0
SMALL
GASTEIGER

@<TRIPOS>ATOM
      1 P          21.8260   70.7280   -0.6072 P.3     1  UNL1        0.2189
      2 O          21.5537   69.5573    0.4637 O.3     1  UNL1       -0.4371
      3 O          22.9720   70.3553   -1.4656 O.2     1  UNL1       -0.5170
      4 O          20.5160   70.9348   -1.5208 O.3     1  UNL1       -0.3112
      5 C          20.4672   71.8553   -2.6124 C.3     1  UNL1        0.1811
      6 C          18.0746   71.2802   -5.2357 C.3     1  UNL1        0.2383
      7 C          18.0678   69.9700   -4.4079 C.3     1  UNL1        0.1895
      8 O          16.7807   69.3505   -4.4441 O.3     1  UNL1       -0.3779
      9 C          18.3939   70.4831   -2.9839 C.3     1  UNL1        0.1713
     10 C          19.0625   71.8508   -3.2205 C.3     1  UNL1        0.1764
     11 O          19.1443   72.0470   -4.6412 O.3     1  UNL1       -0.3308
     12 O          17.1951   70.6370   -2.2224 O.3     1  UNL1       -0.3794
     13 H          16.7261   68.5266   -3.9411 H       1  UNL1        0.2106
     14 H          16.7022   69.8156   -2.0931 H       1  UNL1        0.2105
     15 N          18.3619   70.9991   -6.6440 N.ar    1  UNL1       -0.2551
     16 C          17.3474   70.7982   -7.5039 C.ar    1  UNL1        0.3323
     17 N          17.5821   70.5378   -8.8036 N.ar    1  UNL1       -0.2743
     18 C          18.8475   70.4761   -9.2657 C.ar    1  UNL1        0.2626
     19 C          19.9249   70.6865   -8.3719 C.ar    1  UNL1        0.0795
     20 C          19.6603   70.9499   -7.0750 C.ar    1  UNL1        0.0869
     21 O          16.2013   70.8512   -7.1012 O.2     1  UNL1       -0.2464
     22 O          19.0612   70.2409  -10.4419 O.2     1  UNL1       -0.2670
     23 H          16.8391   70.3943   -9.4098 H       1  UNL1        0.1734
     24 O          22.1599   72.0988    0.1691 O.3     1  UNL1       -0.2703
     25 P          21.6027   72.7857    1.5147 P.3     1  UNL1        0.2208
     26 O          20.5008   73.8965    1.1330 O.3     1  UNL1       -0.4371
     27 O          20.9845   71.7541    2.3760 O.2     1  UNL1       -0.5170
     28 O          22.8197   73.4853    2.3036 O.3     1  UNL1       -0.2865
     29 C          22.7405   74.8057    2.8435 C.3     1  UNL1        0.2611
     30 C          24.1227   75.2398    3.3372 C.3     1  UNL1        0.1582
     31 C          24.5706   74.3029    4.4633 C.3     1  UNL1        0.1625
     32 C          23.5223   74.3255    5.5790 C.3     1  UNL1        0.1686
     33 C          22.1629   73.9264    4.9987 C.3     1  UNL1        0.1760
     34 O          25.8279   74.7450    4.9802 O.3     1  UNL1       -0.3801
     35 O          23.4394   75.6411    6.1300 O.3     1  UNL1       -0.3794
     36 O          21.8198   74.8186    3.9364 O.3     1  UNL1       -0.3263
     37 H          26.1727   74.1959    5.6977 H       1  UNL1        0.2105
     38 H          22.7923   75.7293    6.8437 H       1  UNL1        0.2105
     39 C          25.5326   76.3028    1.6579 C.2     1  UNL1        0.2231
     40 C          26.5184   76.2318    0.5214 C.3     1  UNL1        0.0946
     41 N          25.0814   75.1699    2.2316 N.am    1  UNL1       -0.2994
     42 O          25.1440   77.3805    2.0577 O.2     1  UNL1       -0.2751
     43 H          25.3911   74.3081    1.9117 H       1  UNL1        0.1496
     44 C          21.0982   74.0043    6.0945 C.3     1  UNL1        0.1693
     45 O          19.9084   73.3484    5.6511 O.3     1  UNL1       -0.3794
     46 H          19.1888   73.3589    6.2970 H       1  UNL1        0.2105
@<TRIPOS>BOND
     1    29    30    1
     2    30    41    1
     3    30    31    1
     4    31    34    1
     5    31    32    1
     6    32    35    1
     7    32    33    1
     8    33    36    1
     9    33    44    1
    10    39    40    1
    11    39    42    2
    12    39    41   am
    13    41    43    1
    14    29    28    1
    15    34    37    1
    16    35    38    1
    17    29    36    1
    18    44    45    1
    19    45    46    1
    20    15     6    1
    21    15    16   ar
    22    16    21    2
    23    16    17   ar
    24    17    23    1
    25    17    18   ar
    26    18    19   ar
    27    19    20   ar
    28    15    20   ar
    29    18    22    2
    30     6     7    1
    31     6    11    1
    32     7     9    1
    33     7     8    1
    34     8    13    1
    35     9    10    1
    36     9    12    1
    37    10     5    1
    38    10    11    1
    39    12    14    1
    40     5     4    1
    41     4     1    1
    42     1     2    1
    43     1    24    1
    44     1     3    2
    45    24    25    1
    46    28    25    1
    47    25    26    1
    48    25    27    2
@<TRIPOS>MOLECULE
UD2
 46 48 0 0 0
SMALL
GASTEIGER

@<TRIPOS>ATOM
      1 P          22.8298   72.0783   -3.2379 P.3     1  UNL1        0.2189
      2 O          23.4399   70.5895   -3.1845 O.3     1  UNL1       -0.4371
      3 O          23.5211   72.8579   -4.2882 O.2     1  UNL1       -0.5170
      4 O          21.2566   72.0016   -3.5742 O.3     1  UNL1       -0.3112
      5 C          20.2424   72.0909   -2.5717 C.3     1  UNL1        0.1811
      6 C          17.9743   71.3825   -5.2718 C.3     1  UNL1        0.2383
      7 C          17.9709   70.0933   -4.4115 C.3     1  UNL1        0.1895
      8 O          16.7041   69.4361   -4.4827 O.3     1  UNL1       -0.3779
      9 C          18.2249   70.6505   -2.9895 C.3     1  UNL1        0.1713
     10 C          18.8640   72.0308   -3.2345 C.3     1  UNL1        0.1764
     11 O          18.9974   72.1943   -4.6554 O.3     1  UNL1       -0.3308
     12 O          16.9926   70.7883   -2.2801 O.3     1  UNL1       -0.3794
     13 H          16.6524   68.6236   -3.9612 H       1  UNL1        0.2106
     14 H          16.5181   69.9563   -2.1493 H       1  UNL1        0.2105
     15 N          18.3258   71.0752   -6.6601 N.ar    1  UNL1       -0.2551
     16 C          17.3536   70.8067   -7.5498 C.ar    1  UNL1        0.3323
     17 N          17.6476   70.5209   -8.8320 N.ar    1  UNL1       -0.2743
     18 C          18.9309   70.5015   -9.2460 C.ar    1  UNL1        0.2626
     19 C          19.9642   70.7833   -8.3203 C.ar    1  UNL1        0.0795
     20 C          19.6403   71.0708   -7.0421 C.ar    1  UNL1        0.0869
     21 O          16.1921   70.8208   -7.1905 O.2     1  UNL1       -0.2464
     22 O          19.1983   70.2434  -10.4063 O.2     1  UNL1       -0.2670
     23 H          16.9345   70.3284   -9.4602 H       1  UNL1        0.1734
     24 O          23.0386   72.7957   -1.8114 O.3     1  UNL1       -0.2703
     25 P          23.0304   74.3290   -1.3194 P.3     1  UNL1        0.2208
     26 O          24.5014   74.9586   -1.5024 O.3     1  UNL1       -0.4371
     27 O          22.0602   75.1011   -2.1261 O.2     1  UNL1       -0.5170
     28 O          22.6086   74.3920    0.2333 O.3     1  UNL1       -0.2865
     29 C          23.3489   73.7419    1.2680 C.3     1  UNL1        0.2611
     30 C          22.4875   72.6471    1.9023 C.3     1  UNL1        0.1582
     31 C          21.2540   73.2884    2.5454 C.3     1  UNL1        0.1625
     32 C          21.7095   74.3336    3.5673 C.3     1  UNL1        0.1686
     33 C          22.6010   75.3637    2.8687 C.3     1  UNL1        0.1760
     34 O          20.4813   72.2819    3.2036 O.3     1  UNL1       -0.3801
     35 O          22.4463   73.6926    4.6102 O.3     1  UNL1       -0.3794
     36 O          23.7126   74.6983    2.2657 O.3     1  UNL1       -0.3263
     37 H          19.6828   72.6179    3.6332 H       1  UNL1        0.2105
     38 H          22.7673   74.2965    5.2944 H       1  UNL1        0.2105
     39 C          22.5122   70.4275    0.8970 C.2     1  UNL1        0.2231
     40 C          22.0769   69.4512   -0.1641 C.3     1  UNL1        0.0946
     41 N          22.0639   71.6981    0.8696 N.am    1  UNL1       -0.2994
     42 O          23.2670   70.0704    1.7773 O.2     1  UNL1       -0.2751
     43 H          21.4612   71.9844    0.1654 H       1  UNL1        0.1496
     44 C          23.1089   76.3780    3.8952 C.3     1  UNL1        0.1693
     45 O          24.5371   76.3446    3.9326 O.3     1  UNL1       -0.3794
     46 H          24.9292   76.9638    4.5633 H       1  UNL1        0.2105
@<TRIPOS>BOND
     1    29    30    1
     2    30    41    1
     3    30    31    1
     4    31    34    1
     5    31    32    1
     6    32    35    1
     7    32    33    1
     8    33    36    1
     9    33    44    1
    10    39    40    1
    11    39    42    2
    12    39    41   am
    13    41    43    1
    14    29    28    1
    15    34    37    1
    16    35    38    1
    17    29    36    1
    18    44    45    1
    19    45    46    1
    20    15     6    1
    21    15    16   ar
    22    16    21    2
    23    16    17   ar
    24    17    23    1
    25    17    18   ar
    26    18    19   ar
    27    19    20   ar
    28    15    20   ar
    29    18    22    2
    30     6     7    1
    31     6    11    1
    32     7     9    1
    33     7     8    1
    34     8    13    1
    35     9    10    1
    36     9    12    1
    37    10     5    1
    38    10    11    1
    39    12    14    1
    40     5     4    1
    41     4     1    1
    42     1     2    1
    43     1    24    1
    44     1     3    2
    45    24    25    1
    46    28    25    1
    47    25    26    1
    48    25    27    2
@<TRIPOS>MOLECULE
UD2
 46 48 0 0 0
SMALL
GASTEIGER

@<TRIPOS>ATOM
      1 P          21.9005   70.4675   -0.1974 P.3     1  UNL1        0.2189
      2 O          22.3301   69.0528    0.4395 O.3     1  UNL1       -0.4371
      3 O          23.0939   71.1404   -0.7559 O.2     1  UNL1       -0.5170
      4 O          20.8241   70.2232   -1.3701 O.3     1  UNL1       -0.3112
      5 C          20.9396   70.8129   -2.6664 C.3     1  UNL1        0.1811
      6 C          18.3822   71.0285   -5.1862 C.3     1  UNL1        0.2383
      7 C          18.1188   69.6750   -4.4785 C.3     1  UNL1        0.1895
      8 O          16.7266   69.3536   -4.4943 O.3     1  UNL1       -0.3779
      9 C          18.6031   69.9625   -3.0362 C.3     1  UNL1        0.1713
     10 C          19.5464   71.1709   -3.1896 C.3     1  UNL1        0.1764
     11 O          19.6158   71.4845   -4.5897 O.3     1  UNL1       -0.3308
     12 O          17.4969   70.2945   -2.1954 O.3     1  UNL1       -0.3794
     13 H          16.5114   68.5152   -4.0638 H       1  UNL1        0.2106
     14 H          16.8408   69.5896   -2.1108 H       1  UNL1        0.2105
     15 N          18.5475   70.8330   -6.6283 N.ar    1  UNL1       -0.2551
     16 C          17.4634   70.7851   -7.4228 C.ar    1  UNL1        0.3323
     17 N          17.5856   70.6063   -8.7515 N.ar    1  UNL1       -0.2743
     18 C          18.8063   70.4735   -9.3090 C.ar    1  UNL1        0.2626
     19 C          19.9561   70.5230   -8.4846 C.ar    1  UNL1        0.0795
     20 C          19.8042   70.7075   -7.1563 C.ar    1  UNL1        0.0869
     21 O          16.3565   70.9036   -6.9339 O.2     1  UNL1       -0.2464
     22 O          18.9183   70.3120  -10.5115 O.2     1  UNL1       -0.2670
     23 H          16.7935   70.5730   -9.3097 H       1  UNL1        0.1734
     24 O          21.2468   71.3946    0.9455 O.3     1  UNL1       -0.2703
     25 P          21.8462   72.2367    2.1802 P.3     1  UNL1        0.2208
     26 O          20.6410   72.7319    3.1268 O.3     1  UNL1       -0.4371
     27 O          22.7662   71.3809    2.9610 O.2     1  UNL1       -0.5170
     28 O          22.6481   73.5151    1.6188 O.3     1  UNL1       -0.2865
     29 C          22.3609   74.8543    2.0254 C.3     1  UNL1        0.2611
     30 C          22.8945   75.8327    0.9762 C.3     1  UNL1        0.1582
     31 C          24.4170   75.6906    0.8857 C.3     1  UNL1        0.1625
     32 C          25.0250   75.9349    2.2695 C.3     1  UNL1        0.1686
     33 C          24.4092   74.9522    3.2690 C.3     1  UNL1        0.1760
     34 O          24.9318   76.6517   -0.0387 O.3     1  UNL1       -0.3801
     35 O          24.7482   77.2741    2.6831 O.3     1  UNL1       -0.3794
     36 O          22.9896   75.1154    3.2820 O.3     1  UNL1       -0.3263
     37 H          25.8923   76.6179   -0.1465 H       1  UNL1        0.2105
     38 H          25.1043   77.4990    3.5541 H       1  UNL1        0.2105
     39 C          22.9404   74.7216   -1.1919 C.2     1  UNL1        0.2231
     40 C          22.3256   74.4079   -2.5307 C.3     1  UNL1        0.0946
     41 N          22.2959   75.5283   -0.3259 N.am    1  UNL1       -0.2994
     42 O          24.0166   74.2480   -0.8925 O.2     1  UNL1       -0.2751
     43 H          21.4359   75.9079   -0.5652 H       1  UNL1        0.1496
     44 C          24.9675   75.2293    4.6662 C.3     1  UNL1        0.1693
     45 O          25.7690   74.1237    5.0875 O.3     1  UNL1       -0.3794
     46 H          26.1563   74.2306    5.9671 H       1  UNL1        0.2105
@<TRIPOS>BOND
     1    29    30    1
     2    30    41    1
     3    30    31    1
     4    31    34    1
     5    31    32    1
     6    32    35    1
     7    32    33    1
     8    33    36    1
     9    33    44    1
    10    39    40    1
    11    39    42    2
    12    39    41   am
    13    41    43    1
    14    29    28    1
    15    34    37    1
    16    35    38    1
    17    29    36    1
    18    44    45    1
    19    45    46    1
    20    15     6    1
    21    15    16   ar
    22    16    21    2
    23    16    17   ar
    24    17    23    1
    25    17    18   ar
    26    18    19   ar
    27    19    20   ar
    28    15    20   ar
    29    18    22    2
    30     6     7    1
    31     6    11    1
    32     7     9    1
    33     7     8    1
    34     8    13    1
    35     9    10    1
    36     9    12    1
    37    10     5    1
    38    10    11    1
    39    12    14    1
    40     5     4    1
    41     4     1    1
    42     1     2    1
    43     1    24    1
    44     1     3    2
    45    24    25    1
    46    28    25    1
    47    25    26    1
    48    25    27    2
@<TRIPOS>MOLECULE
UD2
 46 48 0 0 0
SMALL
GASTEIGER

@<TRIPOS>ATOM
      1 P          21.9548   70.4936   -0.1884 P.3     1  UNL1        0.2189
      2 O          22.5778   69.1531    0.4490 O.3     1  UNL1       -0.4371
      3 O          23.0207   71.2554   -0.8756 O.2     1  UNL1       -0.5170
      4 O          20.8074   70.1006   -1.2481 O.3     1  UNL1       -0.3112
      5 C          20.9126   70.3778   -2.6458 C.3     1  UNL1        0.1811
      6 C          18.4166   70.9524   -5.1710 C.3     1  UNL1        0.2383
      7 C          18.0032   69.6117   -4.5124 C.3     1  UNL1        0.1895
      8 O          16.5848   69.4423   -4.5472 O.3     1  UNL1       -0.3779
      9 C          18.5020   69.7962   -3.0583 C.3     1  UNL1        0.1713
     10 C          19.5706   70.9009   -3.1640 C.3     1  UNL1        0.1764
     11 O          19.6863   71.2528   -4.5519 O.3     1  UNL1       -0.3308
     12 O          17.4299   70.2162   -2.2127 O.3     1  UNL1       -0.3794
     13 H          16.2770   68.6176   -4.1474 H       1  UNL1        0.2106
     14 H          16.7013   69.5834   -2.1564 H       1  UNL1        0.2105
     15 N          18.5735   70.7895   -6.6181 N.ar    1  UNL1       -0.2551
     16 C          17.4854   70.7702   -7.4083 C.ar    1  UNL1        0.3323
     17 N          17.5999   70.6217   -8.7414 N.ar    1  UNL1       -0.2743
     18 C          18.8167   70.4910   -9.3077 C.ar    1  UNL1        0.2626
     19 C          19.9707   70.5105   -8.4879 C.ar    1  UNL1        0.0795
     20 C          19.8266   70.6651   -7.1549 C.ar    1  UNL1        0.0869
     21 O          16.3819   70.8872   -6.9114 O.2     1  UNL1       -0.2464
     22 O          18.9217   70.3569  -10.5142 O.2     1  UNL1       -0.2670
     23 H          16.8050   70.6088   -9.2965 H       1  UNL1        0.1734
     24 O          21.3169   71.3982    0.9812 O.3     1  UNL1       -0.2703
     25 P          21.9383   72.3205    2.1458 P.3     1  UNL1        0.2208
     26 O          22.8526   71.4163    3.1154 O.3     1  UNL1       -0.4371
     27 O          22.7661   73.3873    1.5417 O.2     1  UNL1       -0.5170
     28 O          20.7448   72.9846    2.9985 O.3     1  UNL1       -0.2865
     29 C          20.7152   74.3696    3.3484 C.3     1  UNL1        0.2611
     30 C          21.4636   74.5798    4.6669 C.3     1  UNL1        0.1582
     31 C          20.7501   73.8040    5.7783 C.3     1  UNL1        0.1625
     32 C          19.2936   74.2694    5.8570 C.3     1  UNL1        0.1686
     33 C          18.6286   74.0710    4.4923 C.3     1  UNL1        0.1760
     34 O          21.3994   74.0536    7.0271 O.3     1  UNL1       -0.3801
     35 O          19.2527   75.6527    6.2122 O.3     1  UNL1       -0.3794
     36 O          19.3588   74.7935    3.4989 O.3     1  UNL1       -0.3263
     37 H          20.9996   73.5921    7.7770 H       1  UNL1        0.2105
     38 H          18.3585   76.0159    6.2797 H       1  UNL1        0.2105
     39 C          23.8744   74.9283    4.7329 C.2     1  UNL1        0.2231
     40 C          25.2877   74.4260    4.5955 C.3     1  UNL1        0.0946
     41 N          22.8381   74.0905    4.5328 N.am    1  UNL1       -0.2994
     42 O          23.6683   76.0881    5.0239 O.2     1  UNL1       -0.2751
     43 H          23.0024   73.1634    4.2992 H       1  UNL1        0.1496
     44 C          17.1902   74.5891    4.5460 C.3     1  UNL1        0.1693
     45 O          17.1431   75.9207    4.0293 O.3     1  UNL1       -0.3794
     46 H          16.2595   76.3136    4.0329 H       1  UNL1        0.2105
@<TRIPOS>BOND
     1    29    30    1
     2    30    41    1
     3    30    31    1
     4    31    34    1
     5    31    32    1
     6    32    35    1
     7    32    33    1
     8    33    36    1
     9    33    44    1
    10    39    40    1
    11    39    42    2
    12    39    41   am
    13    41    43    1
    14    29    28    1
    15    34    37    1
    16    35    38    1
    17    29    36    1
    18    44    45    1
    19    45    46    1
    20    15     6    1
    21    15    16   ar
    22    16    21    2
    23    16    17   ar
    24    17    23    1
    25    17    18   ar
    26    18    19   ar
    27    19    20   ar
    28    15    20   ar
    29    18    22    2
    30     6     7    1
    31     6    11    1
    32     7     9    1
    33     7     8    1
    34     8    13    1
    35     9    10    1
    36     9    12    1
    37    10     5    1
    38    10    11    1
    39    12    14    1
    40     5     4    1
    41     4     1    1
    42     1     2    1
    43     1    24    1
    44     1     3    2
    45    24    25    1
    46    28    25    1
    47    25    26    1
    48    25    27    2
@<TRIPOS>MOLECULE
UD2
 46 48 0 0 0
SMALL
GASTEIGER

@<TRIPOS>ATOM
      1 P          22.7522   71.7073   -3.1008 P.3     1  UNL1        0.2189
      2 O          22.9139   72.1040   -1.5491 O.3     1  UNL1       -0.4371
      3 O          23.2156   70.3173   -3.3061 O.2     1  UNL1       -0.5170
      4 O          21.2033   71.8250   -3.5260 O.3     1  UNL1       -0.3112
      5 C          20.2107   72.4212   -2.6888 C.3     1  UNL1        0.1811
      6 C          17.9584   71.4474   -5.3185 C.3     1  UNL1        0.2383
      7 C          18.0672   70.1933   -4.4143 C.3     1  UNL1        0.1895
      8 O          16.8530   69.4404   -4.4382 O.3     1  UNL1       -0.3779
      9 C          18.3019   70.8188   -3.0175 C.3     1  UNL1        0.1713
     10 C          18.8300   72.2336   -3.3224 C.3     1  UNL1        0.1764
     11 O          18.9269   72.3556   -4.7504 O.3     1  UNL1       -0.3308
     12 O          17.0747   70.8886   -2.2896 O.3     1  UNL1       -0.3794
     13 H          16.8719   68.6456   -3.8881 H       1  UNL1        0.2106
     14 H          16.6669   70.0285   -2.1210 H       1  UNL1        0.2105
     15 N          18.3089   71.1179   -6.7018 N.ar    1  UNL1       -0.2551
     16 C          17.3387   70.8023   -7.5781 C.ar    1  UNL1        0.3323
     17 N          17.6320   70.4951   -8.8555 N.ar    1  UNL1       -0.2743
     18 C          18.9125   70.5014   -9.2783 C.ar    1  UNL1        0.2626
     19 C          19.9438   70.8328   -8.3668 C.ar    1  UNL1        0.0795
     20 C          19.6206   71.1407   -7.0932 C.ar    1  UNL1        0.0869
     21 O          16.1796   70.7928   -7.2108 O.2     1  UNL1       -0.2464
     22 O          19.1793   70.2239  -10.4343 O.2     1  UNL1       -0.2670
     23 H          16.9203   70.2687   -9.4739 H       1  UNL1        0.1734
     24 O          23.6337   72.7064   -4.0052 O.3     1  UNL1       -0.2703
     25 P          24.0060   74.2698   -3.9056 P.3     1  UNL1        0.2208
     26 O          23.5587   75.0150   -5.2615 O.3     1  UNL1       -0.4371
     27 O          23.2984   74.8734   -2.7552 O.2     1  UNL1       -0.5170
     28 O          25.5953   74.4311   -3.7033 O.3     1  UNL1       -0.2865
     29 C          26.2650   75.6912   -3.7735 C.3     1  UNL1        0.2611
     30 C          27.7595   75.4632   -4.0129 C.3     1  UNL1        0.1582
     31 C          28.3456   74.6903   -2.8274 C.3     1  UNL1        0.1625
     32 C          28.0769   75.4724   -1.5388 C.3     1  UNL1        0.1686
     33 C          26.5698   75.7001   -1.3947 C.3     1  UNL1        0.1760
     34 O          29.7553   74.5368   -3.0078 O.3     1  UNL1       -0.3801
     35 O          28.7475   76.7327   -1.5964 O.3     1  UNL1       -0.3794
     36 O          26.0828   76.3961   -2.5437 O.3     1  UNL1       -0.3263
     37 H          30.1927   74.0545   -2.2927 H       1  UNL1        0.2105
     38 H          28.6201   77.2830   -0.8109 H       1  UNL1        0.2105
     39 C          28.9394   75.0062   -6.0954 C.2     1  UNL1        0.2231
     40 C          29.1314   74.2102   -7.3596 C.3     1  UNL1        0.0946
     41 N          27.9454   74.6886   -5.2425 N.am    1  UNL1       -0.2994
     42 O          29.6797   75.9340   -5.8442 O.2     1  UNL1       -0.2751
     43 H          27.3527   73.9475   -5.4434 H       1  UNL1        0.1496
     44 C          26.2976   76.5325   -0.1404 C.3     1  UNL1        0.1693
     45 O          26.3045   77.9210   -0.4785 O.3     1  UNL1       -0.3794
     46 H          26.1383   78.5097    0.2704 H       1  UNL1        0.2105
@<TRIPOS>BOND
     1    29    30    1
     2    30    41    1
     3    30    31    1
     4    31    34    1
     5    31    32    1
     6    32    35    1
     7    32    33    1
     8    33    36    1
     9    33    44    1
    10    39    40    1
    11    39    42    2
    12    39    41   am
    13    41    43    1
    14    29    28    1
    15    34    37    1
    16    35    38    1
    17    29    36    1
    18    44    45    1
    19    45    46    1
    20    15     6    1
    21    15    16   ar
    22    16    21    2
    23    16    17   ar
    24    17    23    1
    25    17    18   ar
    26    18    19   ar
    27    19    20   ar
    28    15    20   ar
    29    18    22    2
    30     6     7    1
    31     6    11    1
    32     7     9    1
    33     7     8    1
    34     8    13    1
    35     9    10    1
    36     9    12    1
    37    10     5    1
    38    10    11    1
    39    12    14    1
    40     5     4    1
    41     4     1    1
    42     1     2    1
    43     1    24    1
    44     1     3    2
    45    24    25    1
    46    28    25    1
    47    25    26    1
    48    25    27    2
@<TRIPOS>MOLECULE
UD2
 46 48 0 0 0
SMALL
GASTEIGER

@<TRIPOS>ATOM
      1 P          22.0540   70.9287   -2.8381 P.3     1  UNL1        0.2189
      2 O          23.5562   70.6380   -3.3381 O.3     1  UNL1       -0.4371
      3 O          21.1643   69.8342   -3.2844 O.2     1  UNL1       -0.5170
      4 O          22.0314   71.0169   -1.2301 O.3     1  UNL1       -0.3112
      5 C          20.8956   71.4726   -0.4927 C.3     1  UNL1        0.1811
      6 C          21.6203   74.1868    1.7534 C.3     1  UNL1        0.2383
      7 C          22.9851   73.8430    1.1043 C.3     1  UNL1        0.1895
      8 O          23.8100   75.0055    1.0054 O.3     1  UNL1       -0.3779
      9 C          22.5616   73.3452   -0.2993 C.3     1  UNL1        0.1713
     10 C          21.0832   72.9472   -0.1274 C.3     1  UNL1        0.1764
     11 O          20.7414   73.1563    1.2520 O.3     1  UNL1       -0.3308
     12 O          22.6891   74.3945   -1.2603 O.3     1  UNL1       -0.3794
     13 H          24.6751   74.8414    0.6062 H       1  UNL1        0.2106
     14 H          23.5915   74.7246   -1.3659 H       1  UNL1        0.2105
     15 N          21.7124   74.1213    3.2136 N.ar    1  UNL1       -0.2551
     16 C          21.6743   72.9270    3.8309 C.ar    1  UNL1        0.3323
     17 N          21.7567   72.8372    5.1715 N.ar    1  UNL1       -0.2743
     18 C          21.8816   73.9519    5.9201 C.ar    1  UNL1        0.2626
     19 C          21.9241   75.2156    5.2834 C.ar    1  UNL1        0.0795
     20 C          21.8436   75.2758    3.9375 C.ar    1  UNL1        0.0869
     21 O          21.5622   71.9136    3.1685 O.2     1  UNL1       -0.2464
     22 O          21.9567   73.8719    7.1336 O.2     1  UNL1       -0.2670
     23 H          21.7264   71.9682    5.6006 H       1  UNL1        0.1734
     24 O          21.5420   72.3238   -3.4586 O.3     1  UNL1       -0.2703
     25 P          21.3913   72.8921   -4.9576 P.3     1  UNL1        0.2208
     26 O          21.0418   74.4633   -4.9028 O.3     1  UNL1       -0.4371
     27 O          22.6613   72.6951   -5.6902 O.2     1  UNL1       -0.5170
     28 O          20.2075   72.1047   -5.7135 O.3     1  UNL1       -0.2865
     29 C          19.0538   72.7581   -6.2457 C.3     1  UNL1        0.2611
     30 C          17.7938   72.0066   -5.8095 C.3     1  UNL1        0.1582
     31 C          17.8313   70.5874   -6.3848 C.3     1  UNL1        0.1625
     32 C          17.9604   70.6690   -7.9083 C.3     1  UNL1        0.1686
     33 C          19.2143   71.4722   -8.2637 C.3     1  UNL1        0.1760
     34 O          16.6241   69.9022   -6.0437 O.3     1  UNL1       -0.3801
     35 O          16.8081   71.3161   -8.4513 O.3     1  UNL1       -0.3794
     36 O          19.1297   72.7705   -7.6727 O.3     1  UNL1       -0.3263
     37 H          16.5799   68.9951   -6.3760 H       1  UNL1        0.2105
     38 H          16.8225   71.4032   -9.4147 H       1  UNL1        0.2105
     39 C          16.5666   72.0667   -3.7052 C.2     1  UNL1        0.2231
     40 C          16.5157   71.9989   -2.2014 C.3     1  UNL1        0.0946
     41 N          17.7451   71.9409   -4.3467 N.am    1  UNL1       -0.2994
     42 O          15.5463   72.2346   -4.3399 O.2     1  UNL1       -0.2751
     43 H          18.5612   71.8075   -3.8395 H       1  UNL1        0.1496
     44 C          19.3181   71.6092   -9.7838 C.3     1  UNL1        0.1693
     45 O          18.7964   70.4329  -10.4056 O.3     1  UNL1       -0.3794
     46 H          18.8304   70.4500  -11.3718 H       1  UNL1        0.2105
@<TRIPOS>BOND
     1    29    30    1
     2    30    41    1
     3    30    31    1
     4    31    34    1
     5    31    32    1
     6    32    35    1
     7    32    33    1
     8    33    36    1
     9    33    44    1
    10    39    40    1
    11    39    42    2
    12    39    41   am
    13    41    43    1
    14    29    28    1
    15    34    37    1
    16    35    38    1
    17    29    36    1
    18    44    45    1
    19    45    46    1
    20    15     6    1
    21    15    16   ar
    22    16    21    2
    23    16    17   ar
    24    17    23    1
    25    17    18   ar
    26    18    19   ar
    27    19    20   ar
    28    15    20   ar
    29    18    22    2
    30     6     7    1
    31     6    11    1
    32     7     9    1
    33     7     8    1
    34     8    13    1
    35     9    10    1
    36     9    12    1
    37    10     5    1
    38    10    11    1
    39    12    14    1
    40     5     4    1
    41     4     1    1
    42     1     2    1
    43     1    24    1
    44     1     3    2
    45    24    25    1
    46    28    25    1
    47    25    26    1
    48    25    27    2
@<TRIPOS>MOLECULE
UD2
 46 48 0 0 0
SMALL
GASTEIGER

@<TRIPOS>ATOM
      1 P          22.0287   70.7970   -2.7997 P.3     1  UNL1        0.2189
      2 O          23.5694   70.5649   -3.2044 O.3     1  UNL1       -0.4371
      3 O          21.3902   69.4926   -2.5174 O.2     1  UNL1       -0.5170
      4 O          21.9530   71.7269   -1.4870 O.3     1  UNL1       -0.3112
      5 C          20.7196   72.1090   -0.8753 C.3     1  UNL1        0.1811
      6 C          21.4066   74.6316    1.5947 C.3     1  UNL1        0.2383
      7 C          22.7426   74.4636    0.8273 C.3     1  UNL1        0.1895
      8 O          23.4729   75.6914    0.7996 O.3     1  UNL1       -0.3779
      9 C          22.2566   74.0778   -0.5913 C.3     1  UNL1        0.1713
     10 C          20.8267   73.5494   -0.3687 C.3     1  UNL1        0.1764
     11 O          20.5703   73.5909    1.0442 O.3     1  UNL1       -0.3308
     12 O          22.2395   75.2253   -1.4420 O.3     1  UNL1       -0.3794
     13 H          24.3167   75.6370    0.3310 H       1  UNL1        0.2106
     14 H          23.1060   75.6345   -1.5693 H       1  UNL1        0.2105
     15 N          21.6074   74.4269    3.0309 N.ar    1  UNL1       -0.2551
     16 C          20.8922   75.1472    3.9132 C.ar    1  UNL1        0.3323
     17 N          21.0563   74.9800    5.2388 N.ar    1  UNL1       -0.2743
     18 C          21.9457   74.0796    5.7044 C.ar    1  UNL1        0.2626
     19 C          22.7046   73.3138    4.7870 C.ar    1  UNL1        0.0795
     20 C          22.5165   73.4992    3.4634 C.ar    1  UNL1        0.0869
     21 O          20.0865   75.9625    3.5076 O.2     1  UNL1       -0.2464
     22 O          22.0949   73.9270    6.9040 O.2     1  UNL1       -0.2670
     23 H          20.5333   75.5085    5.8612 H       1  UNL1        0.1734
     24 O          21.2577   71.5206   -4.0143 O.3     1  UNL1       -0.2703
     25 P          21.5501   72.8332   -4.9000 P.3     1  UNL1        0.2208
     26 O          21.1500   74.1474   -4.0594 O.3     1  UNL1       -0.4371
     27 O          22.9880   72.8868   -5.2432 O.2     1  UNL1       -0.5170
     28 O          20.6771   72.7739   -6.2517 O.3     1  UNL1       -0.2865
     29 C          20.6428   71.6297   -7.1066 C.3     1  UNL1        0.2611
     30 C          20.4259   72.0789   -8.5536 C.3     1  UNL1        0.1582
     31 C          19.0693   72.7821   -8.6629 C.3     1  UNL1        0.1625
     32 C          17.9722   71.8293   -8.1803 C.3     1  UNL1        0.1686
     33 C          18.2838   71.3896   -6.7472 C.3     1  UNL1        0.1760
     34 O          18.8258   73.1400  -10.0252 O.3     1  UNL1       -0.3801
     35 O          17.9257   70.6835   -9.0325 O.3     1  UNL1       -0.3794
     36 O          19.5714   70.7711   -6.7098 O.3     1  UNL1       -0.3263
     37 H          17.9824   73.5910  -10.1681 H       1  UNL1        0.2105
     38 H          17.2518   70.0352   -8.7846 H       1  UNL1        0.2105
     39 C          21.3047   74.3358   -8.8218 C.2     1  UNL1        0.2231
     40 C          22.3993   75.2901   -9.2214 C.3     1  UNL1        0.0946
     41 N          21.4910   73.0066   -8.9428 N.am    1  UNL1       -0.2994
     42 O          20.2543   74.7635   -8.3906 O.2     1  UNL1       -0.2751
     43 H          22.3302   72.6642   -9.2884 H       1  UNL1        0.1496
     44 C          17.2240   70.3907   -6.2787 C.3     1  UNL1        0.1693
     45 O          16.0442   70.5400   -7.0713 O.3     1  UNL1       -0.3794
     46 H          15.3282   69.9368   -6.8293 H       1  UNL1        0.2105
@<TRIPOS>BOND
     1    29    30    1
     2    30    41    1
     3    30    31    1
     4    31    34    1
     5    31    32    1
     6    32    35    1
     7    32    33    1
     8    33    36    1
     9    33    44    1
    10    39    40    1
    11    39    42    2
    12    39    41   am
    13    41    43    1
    14    29    28    1
    15    34    37    1
    16    35    38    1
    17    29    36    1
    18    44    45    1
    19    45    46    1
    20    15     6    1
    21    15    16   ar
    22    16    21    2
    23    16    17   ar
    24    17    23    1
    25    17    18   ar
    26    18    19   ar
    27    19    20   ar
    28    15    20   ar
    29    18    22    2
    30     6     7    1
    31     6    11    1
    32     7     9    1
    33     7     8    1
    34     8    13    1
    35     9    10    1
    36     9    12    1
    37    10     5    1
    38    10    11    1
    39    12    14    1
    40     5     4    1
    41     4     1    1
    42     1     2    1
    43     1    24    1
    44     1     3    2
    45    24    25    1
    46    28    25    1
    47    25    26    1
    48    25    27    2
@<TRIPOS>MOLECULE
UD2
 46 48 0 0 0
SMALL
GASTEIGER

@<TRIPOS>ATOM
      1 P          22.6809   73.2078   -3.9813 P.3     1  UNL1        0.2189
      2 O          24.2891   73.2777   -3.9663 O.3     1  UNL1       -0.4371
      3 O          22.2484   71.7941   -4.0376 O.2     1  UNL1       -0.5170
      4 O          22.1016   73.8934   -2.6441 O.3     1  UNL1       -0.3112
      5 C          21.5579   73.1411   -1.5579 C.3     1  UNL1        0.1811
      6 C          23.1894   72.3008    1.5354 C.3     1  UNL1        0.2383
      7 C          22.4105   71.0190    1.1449 C.3     1  UNL1        0.1895
      8 O          23.0854   69.8496    1.6127 O.3     1  UNL1       -0.3779
      9 C          22.4289   71.0858   -0.4019 C.3     1  UNL1        0.1713
     10 C          22.6986   72.5707   -0.7115 C.3     1  UNL1        0.1764
     11 O          22.7689   73.2637    0.5448 O.3     1  UNL1       -0.3308
     12 O          23.4768   70.2672   -0.9241 O.3     1  UNL1       -0.3794
     13 H          22.6365   69.0219    1.3935 H       1  UNL1        0.2106
     14 H          23.3888   69.3290   -0.7082 H       1  UNL1        0.2105
     15 N          22.8122   72.7443    2.8793 N.ar    1  UNL1       -0.2551
     16 C          21.5953   72.4399    3.3644 C.ar    1  UNL1        0.3323
     17 N          21.2219   72.8346    4.5961 N.ar    1  UNL1       -0.2743
     18 C          22.0700   73.5448    5.3674 C.ar    1  UNL1        0.2626
     19 C          23.3544   73.8714    4.8698 C.ar    1  UNL1        0.0795
     20 C          23.7038   73.4590    3.6331 C.ar    1  UNL1        0.0869
     21 O          20.8204   71.7999    2.6801 O.2     1  UNL1       -0.2464
     22 O          21.7333   73.9024    6.4825 O.2     1  UNL1       -0.2670
     23 H          20.3403   72.6077    4.9300 H       1  UNL1        0.1734
     24 O          22.1213   73.9924   -5.2714 O.3     1  UNL1       -0.2703
     25 P          21.6028   73.5289   -6.7237 P.3     1  UNL1        0.2208
     26 O          21.4729   74.8162   -7.6827 O.3     1  UNL1       -0.4371
     27 O          22.5673   72.5729   -7.3103 O.2     1  UNL1       -0.5170
     28 O          20.1644   72.8199   -6.5788 O.3     1  UNL1       -0.2865
     29 C          19.0446   73.1558   -7.4000 C.3     1  UNL1        0.2611
     30 C          17.7550   73.0183   -6.5872 C.3     1  UNL1        0.1582
     31 C          17.5902   71.5594   -6.1503 C.3     1  UNL1        0.1625
     32 C          17.5926   70.6627   -7.3913 C.3     1  UNL1        0.1686
     33 C          18.8888   70.8910   -8.1733 C.3     1  UNL1        0.1760
     34 O          16.3516   71.4071   -5.4533 O.3     1  UNL1       -0.3801
     35 O          16.4726   70.9869   -8.2170 O.3     1  UNL1       -0.3794
     36 O          18.9955   72.2726   -8.5224 O.3     1  UNL1       -0.3263
     37 H          16.1818   70.5059   -5.1462 H       1  UNL1        0.2105
     38 H          16.4113   70.4566   -9.0239 H       1  UNL1        0.2105
     39 C          18.3270   73.3951   -4.2487 C.2     1  UNL1        0.2231
     40 C          18.4031   74.2790   -3.0316 C.3     1  UNL1        0.0946
     41 N          17.8285   73.8787   -5.4036 N.am    1  UNL1       -0.2994
     42 O          18.7145   72.2468   -4.1900 O.2     1  UNL1       -0.2751
     43 H          17.5176   74.7963   -5.4508 H       1  UNL1        0.1496
     44 C          18.8724   70.0427   -9.4463 C.3     1  UNL1        0.1693
     45 O          19.4334   70.7920  -10.5262 O.3     1  UNL1       -0.3794
     46 H          19.4551   70.3150  -11.3670 H       1  UNL1        0.2105
@<TRIPOS>BOND
     1    29    30    1
     2    30    41    1
     3    30    31    1
     4    31    34    1
     5    31    32    1
     6    32    35    1
     7    32    33    1
     8    33    36    1
     9    33    44    1
    10    39    40    1
    11    39    42    2
    12    39    41   am
    13    41    43    1
    14    29    28    1
    15    34    37    1
    16    35    38    1
    17    29    36    1
    18    44    45    1
    19    45    46    1
    20    15     6    1
    21    15    16   ar
    22    16    21    2
    23    16    17   ar
    24    17    23    1
    25    17    18   ar
    26    18    19   ar
    27    19    20   ar
    28    15    20   ar
    29    18    22    2
    30     6     7    1
    31     6    11    1
    32     7     9    1
    33     7     8    1
    34     8    13    1
    35     9    10    1
    36     9    12    1
    37    10     5    1
    38    10    11    1
    39    12    14    1
    40     5     4    1
    41     4     1    1
    42     1     2    1
    43     1    24    1
    44     1     3    2
    45    24    25    1
    46    28    25    1
    47    25    26    1
    48    25    27    2
@<TRIPOS>MOLECULE
UD2
 46 48 0 0 0
SMALL
GASTEIGER

@<TRIPOS>ATOM
      1 P          22.8279   73.7031   -3.9920 P.3     1  UNL1        0.2189
      2 O          23.0883   74.7171   -5.2148 O.3     1  UNL1       -0.4371
      3 O          23.8410   72.6252   -4.0198 O.2     1  UNL1       -0.5170
      4 O          22.9345   74.5041   -2.5988 O.3     1  UNL1       -0.3112
      5 C          22.1787   74.1502   -1.4391 C.3     1  UNL1        0.1811
      6 C          23.0877   72.4633    1.6047 C.3     1  UNL1        0.2383
      7 C          21.9773   71.5774    0.9848 C.3     1  UNL1        0.1895
      8 O          22.1716   70.2033    1.3253 O.3     1  UNL1       -0.3779
      9 C          22.1879   71.8057   -0.5321 C.3     1  UNL1        0.1713
     10 C          22.9657   73.1334   -0.6086 C.3     1  UNL1        0.1764
     11 O          23.1215   73.6160    0.7354 O.3     1  UNL1       -0.3308
     12 O          22.9573   70.7416   -1.0947 O.3     1  UNL1       -0.3794
     13 H          21.5016   69.6090    0.9611 H       1  UNL1        0.2106
     14 H          22.5409   69.8724   -1.0208 H       1  UNL1        0.2105
     15 N          22.7319   72.8564    2.9699 N.ar    1  UNL1       -0.2551
     16 C          21.4984   72.5961    3.4383 C.ar    1  UNL1        0.3323
     17 N          21.1440   72.9463    4.6889 N.ar    1  UNL1       -0.2743
     18 C          22.0283   73.5662    5.4965 C.ar    1  UNL1        0.2626
     19 C          23.3306   73.8454    5.0168 C.ar    1  UNL1        0.0795
     20 C          23.6601   73.4793    3.7603 C.ar    1  UNL1        0.0869
     21 O          20.6908   72.0376    2.7212 O.2     1  UNL1       -0.2464
     22 O          21.7089   73.8833    6.6287 O.2     1  UNL1       -0.2670
     23 H          20.2500   72.7522    5.0103 H       1  UNL1        0.1734
     24 O          21.3573   73.0616   -4.1302 O.3     1  UNL1       -0.2703
     25 P          19.8702   73.6766   -4.1858 P.3     1  UNL1        0.2208
     26 O          18.9633   72.9907   -3.0452 O.3     1  UNL1       -0.4371
     27 O          19.9309   75.1366   -3.9553 O.2     1  UNL1       -0.5170
     28 O          19.2238   73.3876   -5.6319 O.3     1  UNL1       -0.2865
     29 C          18.1637   72.4521   -5.8379 C.3     1  UNL1        0.2611
     30 C          18.7469   71.1081   -6.2810 C.3     1  UNL1        0.1582
     31 C          19.4715   71.2917   -7.6181 C.3     1  UNL1        0.1625
     32 C          18.4901   71.8651   -8.6439 C.3     1  UNL1        0.1686
     33 C          17.9167   73.1803   -8.1095 C.3     1  UNL1        0.1760
     34 O          19.9562   70.0272   -8.0757 O.3     1  UNL1       -0.3801
     35 O          17.4284   70.9341   -8.8615 O.3     1  UNL1       -0.3794
     36 O          17.2837   72.9453   -6.8501 O.3     1  UNL1       -0.3263
     37 H          20.4274   70.0690   -8.9191 H       1  UNL1        0.2105
     38 H          16.7672   71.2331   -9.5013 H       1  UNL1        0.2105
     39 C          19.2904   69.7593   -4.3258 C.2     1  UNL1        0.2231
     40 C          20.2646   69.2667   -3.2881 C.3     1  UNL1        0.0946
     41 N          19.6951   70.6296   -5.2719 N.am    1  UNL1       -0.2994
     42 O          18.1404   69.3728   -4.3103 O.2     1  UNL1       -0.2751
     43 H          20.6142   70.9396   -5.2840 H       1  UNL1        0.1496
     44 C          16.8902   73.7295   -9.1021 C.3     1  UNL1        0.1693
     45 O          15.6318   73.0854   -8.8924 O.3     1  UNL1       -0.3794
     46 H          14.9318   73.3851   -9.4884 H       1  UNL1        0.2105
@<TRIPOS>BOND
     1    29    30    1
     2    30    41    1
     3    30    31    1
     4    31    34    1
     5    31    32    1
     6    32    35    1
     7    32    33    1
     8    33    36    1
     9    33    44    1
    10    39    40    1
    11    39    42    2
    12    39    41   am
    13    41    43    1
    14    29    28    1
    15    34    37    1
    16    35    38    1
    17    29    36    1
    18    44    45    1
    19    45    46    1
    20    15     6    1
    21    15    16   ar
    22    16    21    2
    23    16    17   ar
    24    17    23    1
    25    17    18   ar
    26    18    19   ar
    27    19    20   ar
    28    15    20   ar
    29    18    22    2
    30     6     7    1
    31     6    11    1
    32     7     9    1
    33     7     8    1
    34     8    13    1
    35     9    10    1
    36     9    12    1
    37    10     5    1
    38    10    11    1
    39    12    14    1
    40     5     4    1
    41     4     1    1
    42     1     2    1
    43     1    24    1
    44     1     3    2
    45    24    25    1
    46    28    25    1
    47    25    26    1
    48    25    27    2
@<TRIPOS>MOLECULE
UD2
 46 48 0 0 0
SMALL
GASTEIGER

@<TRIPOS>ATOM
      1 P          22.1140   70.4685   -0.1308 P.3     1  UNL1        0.2189
      2 O          21.3877   70.8679    1.2491 O.3     1  UNL1       -0.4371
      3 O          23.0657   69.3625    0.1139 O.2     1  UNL1       -0.5170
      4 O          21.0079   69.9976   -1.2025 O.3     1  UNL1       -0.3112
      5 C          21.0688   70.3469   -2.5867 C.3     1  UNL1        0.1811
      6 C          18.4868   70.8691   -5.0356 C.3     1  UNL1        0.2383
      7 C          18.1655   69.4835   -4.4198 C.3     1  UNL1        0.1895
      8 O          16.7585   69.2342   -4.4314 O.3     1  UNL1       -0.3779
      9 C          18.6862   69.6430   -2.9704 C.3     1  UNL1        0.1713
     10 C          19.6878   70.8105   -3.0565 C.3     1  UNL1        0.1764
     11 O          19.7513   71.2191   -4.4322 O.3     1  UNL1       -0.3308
     12 O          17.6118   69.9693   -2.0874 O.3     1  UNL1       -0.3794
     13 H          16.5073   68.3791   -4.0569 H       1  UNL1        0.2106
     14 H          16.9218   69.2940   -2.0399 H       1  UNL1        0.2105
     15 N          18.6193   70.7686   -6.4907 N.ar    1  UNL1       -0.2551
     16 C          17.5164   70.7371   -7.2597 C.ar    1  UNL1        0.3323
     17 N          17.6084   70.6450   -8.5996 N.ar    1  UNL1       -0.2743
     18 C          18.8172   70.5844   -9.1943 C.ar    1  UNL1        0.2626
     19 C          19.9866   70.6177   -8.3971 C.ar    1  UNL1        0.0795
     20 C          19.8648   70.7147   -7.0565 C.ar    1  UNL1        0.0869
     21 O          16.4199   70.7911   -6.7371 O.2     1  UNL1       -0.2464
     22 O          18.9019   70.5014  -10.4070 O.2     1  UNL1       -0.2670
     23 H          16.8031   70.6222   -9.1391 H       1  UNL1        0.1734
     24 O          22.9100   71.7441   -0.7074 O.3     1  UNL1       -0.2703
     25 P          22.6832   73.3360   -0.6209 P.3     1  UNL1        0.2208
     26 O          21.3152   73.7246   -1.3767 O.3     1  UNL1       -0.4371
     27 O          22.5957   73.7457    0.7979 O.2     1  UNL1       -0.5170
     28 O          23.9186   74.0930   -1.3233 O.3     1  UNL1       -0.2865
     29 C          23.9304   75.5001   -1.5706 C.3     1  UNL1        0.2611
     30 C          24.1484   75.7549   -3.0640 C.3     1  UNL1        0.1582
     31 C          25.5158   75.1992   -3.4737 C.3     1  UNL1        0.1625
     32 C          26.5992   75.8503   -2.6096 C.3     1  UNL1        0.1686
     33 C          26.2866   75.5917   -1.1333 C.3     1  UNL1        0.1760
     34 O          25.7592   75.4978   -4.8502 O.3     1  UNL1       -0.3801
     35 O          26.6231   77.2578   -2.8538 O.3     1  UNL1       -0.3794
     36 O          24.9892   76.1054   -0.8256 O.3     1  UNL1       -0.3263
     37 H          26.6093   75.1738   -5.1782 H       1  UNL1        0.2105
     38 H          27.2874   77.7359   -2.3379 H       1  UNL1        0.2105
     39 C          23.2942   73.8352   -4.2979 C.2     1  UNL1        0.2231
     40 C          22.2137   73.1453   -5.0887 C.3     1  UNL1        0.0946
     41 N          23.0969   75.0847   -3.8333 N.am    1  UNL1       -0.2994
     42 O          24.3431   73.2659   -4.0788 O.2     1  UNL1       -0.2751
     43 H          22.2589   75.5405   -4.0091 H       1  UNL1        0.1496
     44 C          27.3319   76.2896   -0.2611 C.3     1  UNL1        0.1693
     45 O          27.7294   75.4164    0.7981 O.3     1  UNL1       -0.3794
     46 H          28.3920   75.7943    1.3924 H       1  UNL1        0.2105
@<TRIPOS>BOND
     1    29    30    1
     2    30    41    1
     3    30    31    1
     4    31    34    1
     5    31    32    1
     6    32    35    1
     7    32    33    1
     8    33    36    1
     9    33    44    1
    10    39    40    1
    11    39    42    2
    12    39    41   am
    13    41    43    1
    14    29    28    1
    15    34    37    1
    16    35    38    1
    17    29    36    1
    18    44    45    1
    19    45    46    1
    20    15     6    1
    21    15    16   ar
    22    16    21    2
    23    16    17   ar
    24    17    23    1
    25    17    18   ar
    26    18    19   ar
    27    19    20   ar
    28    15    20   ar
    29    18    22    2
    30     6     7    1
    31     6    11    1
    32     7     9    1
    33     7     8    1
    34     8    13    1
    35     9    10    1
    36     9    12    1
    37    10     5    1
    38    10    11    1
    39    12    14    1
    40     5     4    1
    41     4     1    1
    42     1     2    1
    43     1    24    1
    44     1     3    2
    45    24    25    1
    46    28    25    1
    47    25    26    1
    48    25    27    2
@<TRIPOS>MOLECULE
UD2
 46 48 0 0 0
SMALL
GASTEIGER

@<TRIPOS>ATOM
      1 P          19.4617   70.6747   -4.1345 P.3     1  UNL1        0.2189
      2 O          18.4639   71.1015   -2.9455 O.3     1  UNL1       -0.4371
      3 O          19.5031   69.1995   -4.2389 O.2     1  UNL1       -0.5170
      4 O          18.9371   71.2968   -5.5243 O.3     1  UNL1       -0.3112
      5 C          17.5825   71.7005   -5.7329 C.3     1  UNL1        0.1811
      6 C          19.0224   73.9042   -8.1838 C.3     1  UNL1        0.2383
      7 C          18.4924   72.7013   -9.0049 C.3     1  UNL1        0.1895
      8 O          18.0882   73.1142  -10.3117 O.3     1  UNL1       -0.3779
      9 C          17.2721   72.2477   -8.1667 C.3     1  UNL1        0.1713
     10 C          17.5404   72.8295   -6.7656 C.3     1  UNL1        0.1764
     11 O          18.8128   73.4944   -6.8150 O.3     1  UNL1       -0.3308
     12 O          16.0657   72.7866   -8.7099 O.3     1  UNL1       -0.3794
     13 H          17.7496   72.3966  -10.8640 H       1  UNL1        0.2106
     14 H          15.8779   72.4998   -9.6137 H       1  UNL1        0.2105
     15 N          20.4471   74.1199   -8.4458 N.ar    1  UNL1       -0.2551
     16 C          21.2402   73.0697   -8.7231 C.ar    1  UNL1        0.3323
     17 N          22.5531   73.2386   -8.9677 N.ar    1  UNL1       -0.2743
     18 C          23.0955   74.4730   -8.9397 C.ar    1  UNL1        0.2626
     19 C          22.2721   75.5876   -8.6502 C.ar    1  UNL1        0.0795
     20 C          20.9583   75.3894   -8.4131 C.ar    1  UNL1        0.0869
     21 O          20.7647   71.9510   -8.7518 O.2     1  UNL1       -0.2464
     22 O          24.2836   74.6272   -9.1613 O.2     1  UNL1       -0.2670
     23 H          23.1110   72.4704   -9.1647 H       1  UNL1        0.1734
     24 O          20.9395   71.2327   -3.8215 O.3     1  UNL1       -0.2703
     25 P          22.0109   70.9640   -2.6498 P.3     1  UNL1        0.2208
     26 O          21.6181   69.6147   -1.8632 O.3     1  UNL1       -0.4371
     27 O          23.3598   70.8159   -3.2389 O.2     1  UNL1       -0.5170
     28 O          22.0062   72.2047   -1.6236 O.3     1  UNL1       -0.2865
     29 C          20.8638   72.5673   -0.8459 C.3     1  UNL1        0.2611
     30 C          20.6962   74.0886   -0.8622 C.3     1  UNL1        0.1582
     31 C          21.9243   74.7359   -0.2146 C.3     1  UNL1        0.1625
     32 C          22.0895   74.1853    1.2046 C.3     1  UNL1        0.1686
     33 C          22.2035   72.6599    1.1411 C.3     1  UNL1        0.1760
     34 O          21.7435   76.1527   -0.1591 O.3     1  UNL1       -0.3801
     35 O          20.9542   74.5476    1.9927 O.3     1  UNL1       -0.3794
     36 O          21.0443   72.1234    0.5005 O.3     1  UNL1       -0.3263
     37 H          22.4852   76.6282    0.2396 H       1  UNL1        0.2105
     38 H          20.9910   74.2303    2.9059 H       1  UNL1        0.2105
     39 C          21.6687   74.9217   -2.9354 C.2     1  UNL1        0.2231
     40 C          21.5408   75.3982   -4.3584 C.3     1  UNL1        0.0946
     41 N          20.5710   74.5523   -2.2463 N.am    1  UNL1       -0.2994
     42 O          22.7604   74.8702   -2.4085 O.2     1  UNL1       -0.2751
     43 H          19.6978   74.5942   -2.6669 H       1  UNL1        0.1496
     44 C          22.3090   72.0972    2.5598 C.3     1  UNL1        0.1693
     45 O          20.9980   71.8933    3.0909 O.3     1  UNL1       -0.3794
     46 H          20.9881   71.5372    3.9898 H       1  UNL1        0.2105
@<TRIPOS>BOND
     1    29    30    1
     2    30    41    1
     3    30    31    1
     4    31    34    1
     5    31    32    1
     6    32    35    1
     7    32    33    1
     8    33    36    1
     9    33    44    1
    10    39    40    1
    11    39    42    2
    12    39    41   am
    13    41    43    1
    14    29    28    1
    15    34    37    1
    16    35    38    1
    17    29    36    1
    18    44    45    1
    19    45    46    1
    20    15     6    1
    21    15    16   ar
    22    16    21    2
    23    16    17   ar
    24    17    23    1
    25    17    18   ar
    26    18    19   ar
    27    19    20   ar
    28    15    20   ar
    29    18    22    2
    30     6     7    1
    31     6    11    1
    32     7     9    1
    33     7     8    1
    34     8    13    1
    35     9    10    1
    36     9    12    1
    37    10     5    1
    38    10    11    1
    39    12    14    1
    40     5     4    1
    41     4     1    1
    42     1     2    1
    43     1    24    1
    44     1     3    2
    45    24    25    1
    46    28    25    1
    47    25    26    1
    48    25    27    2
@<TRIPOS>MOLECULE
UD2
 46 48 0 0 0
SMALL
GASTEIGER

@<TRIPOS>ATOM
      1 P          22.8825   72.7911   -4.2579 P.3     1  UNL1        0.2189
      2 O          22.8355   72.7522   -5.8665 O.3     1  UNL1       -0.4371
      3 O          23.0751   71.4202   -3.7361 O.2     1  UNL1       -0.5170
      4 O          24.1047   73.7242   -3.7793 O.3     1  UNL1       -0.3112
      5 C          24.1886   75.1159   -4.0919 C.3     1  UNL1        0.1811
      6 C          27.7413   75.6470   -4.2737 C.3     1  UNL1        0.2383
      7 C          27.1260   76.8829   -4.9781 C.3     1  UNL1        0.1895
      8 O          27.9566   78.0331   -4.8079 O.3     1  UNL1       -0.3779
      9 C          25.7850   77.0534   -4.2231 C.3     1  UNL1        0.1713
     10 C          25.5269   75.6697   -3.5967 C.3     1  UNL1        0.1764
     11 O          26.5970   74.8059   -4.0118 O.3     1  UNL1       -0.3308
     12 O          25.9084   78.0484   -3.2055 O.3     1  UNL1       -0.3794
     13 H          27.6142   78.8319   -5.2314 H       1  UNL1        0.2106
     14 H          26.1293   78.9283   -3.5394 H       1  UNL1        0.2105
     15 N          28.6896   74.9676   -5.1593 N.ar    1  UNL1       -0.2551
     16 C          29.7118   74.2705   -4.6321 C.ar    1  UNL1        0.3323
     17 N          30.5984   73.6364   -5.4221 N.ar    1  UNL1       -0.2743
     18 C          30.4719   73.6901   -6.7636 C.ar    1  UNL1        0.2626
     19 C          29.4000   74.4194   -7.3321 C.ar    1  UNL1        0.0795
     20 C          28.5236   75.0419   -6.5161 C.ar    1  UNL1        0.0869
     21 O          29.8380   74.2134   -3.4241 O.2     1  UNL1       -0.2464
     22 O          31.2735   73.1163   -7.4797 O.2     1  UNL1       -0.2670
     23 H          31.3303   73.1393   -5.0255 H       1  UNL1        0.1734
     24 O          21.4980   73.3905   -3.6946 O.3     1  UNL1       -0.2703
     25 P          19.9670   72.8931   -3.7322 P.3     1  UNL1        0.2208
     26 O          19.7989   71.6029   -2.7830 O.3     1  UNL1       -0.4371
     27 O          19.0837   73.9776   -3.2506 O.2     1  UNL1       -0.5170
     28 O          19.5661   72.5046   -5.2425 O.3     1  UNL1       -0.2865
     29 C          18.3740   72.9721   -5.8763 C.3     1  UNL1        0.2611
     30 C          17.2365   71.9805   -5.6208 C.3     1  UNL1        0.1582
     31 C          17.5975   70.6301   -6.2475 C.3     1  UNL1        0.1625
     32 C          17.8696   70.8291   -7.7411 C.3     1  UNL1        0.1686
     33 C          18.9830   71.8654   -7.9148 C.3     1  UNL1        0.1760
     34 O          16.5093   69.7190   -6.0775 O.3     1  UNL1       -0.3801
     35 O          16.6812   71.2914   -8.3856 O.3     1  UNL1       -0.3794
     36 O          18.5969   73.0876   -7.2832 O.3     1  UNL1       -0.3263
     37 H          16.6696   68.8414   -6.4508 H       1  UNL1        0.2105
     38 H          16.7810   71.4400   -9.3364 H       1  UNL1        0.2105
     39 C          15.8863   72.1903   -3.6032 C.2     1  UNL1        0.2231
     40 C          15.6900   72.0205   -2.1195 C.3     1  UNL1        0.0946
     41 N          17.0463   71.8152   -4.1775 N.am    1  UNL1       -0.2994
     42 O          14.9999   72.6651   -4.2821 O.2     1  UNL1       -0.2751
     43 H          17.7556   71.4365   -3.6349 H       1  UNL1        0.1496
     44 C          19.2198   72.1141   -9.4057 C.3     1  UNL1        0.1693
     45 O          18.7769   70.9804  -10.1547 O.3     1  UNL1       -0.3794
     46 H          18.8968   71.0683  -11.1101 H       1  UNL1        0.2105
@<TRIPOS>BOND
     1    29    30    1
     2    30    41    1
     3    30    31    1
     4    31    34    1
     5    31    32    1
     6    32    35    1
     7    32    33    1
     8    33    36    1
     9    33    44    1
    10    39    40    1
    11    39    42    2
    12    39    41   am
    13    41    43    1
    14    29    28    1
    15    34    37    1
    16    35    38    1
    17    29    36    1
    18    44    45    1
    19    45    46    1
    20    15     6    1
    21    15    16   ar
    22    16    21    2
    23    16    17   ar
    24    17    23    1
    25    17    18   ar
    26    18    19   ar
    27    19    20   ar
    28    15    20   ar
    29    18    22    2
    30     6     7    1
    31     6    11    1
    32     7     9    1
    33     7     8    1
    34     8    13    1
    35     9    10    1
    36     9    12    1
    37    10     5    1
    38    10    11    1
    39    12    14    1
    40     5     4    1
    41     4     1    1
    42     1     2    1
    43     1    24    1
    44     1     3    2
    45    24    25    1
    46    28    25    1
    47    25    26    1
    48    25    27    2
@<TRIPOS>MOLECULE
UD2
 46 48 0 0 0
SMALL
GASTEIGER

@<TRIPOS>ATOM
      1 P          21.2850   70.2762   -1.9580 P.3     1  UNL1        0.2189
      2 O          22.7949   70.7035   -2.3171 O.3     1  UNL1       -0.4371
      3 O          20.8943   69.1075   -2.7767 O.2     1  UNL1       -0.5170
      4 O          21.1930   69.8926   -0.3965 O.3     1  UNL1       -0.3112
      5 C          21.8830   70.6169    0.6236 C.3     1  UNL1        0.1811
      6 C          21.1292   73.6361    2.4272 C.3     1  UNL1        0.2383
      7 C          22.3914   73.9827    1.5972 C.3     1  UNL1        0.1895
      8 O          22.4047   75.3670    1.2431 O.3     1  UNL1       -0.3779
      9 C          22.2102   73.0935    0.3427 C.3     1  UNL1        0.1713
     10 C          21.2345   71.9922    0.7996 C.3     1  UNL1        0.1764
     11 O          20.9481   72.2234    2.1882 O.3     1  UNL1       -0.3308
     12 O          21.6442   73.8509   -0.7282 O.3     1  UNL1       -0.3794
     13 H          23.1754   75.6329    0.7235 H       1  UNL1        0.2106
     14 H          22.1905   74.5944   -1.0167 H       1  UNL1        0.2105
     15 N          21.3609   73.8935    3.8502 N.ar    1  UNL1       -0.2551
     16 C          22.0215   72.9871    4.5924 C.ar    1  UNL1        0.3323
     17 N          22.2485   73.1974    5.9026 N.ar    1  UNL1       -0.2743
     18 C          21.8148   74.3294    6.4934 C.ar    1  UNL1        0.2626
     19 C          21.1189   75.2925    5.7239 C.ar    1  UNL1        0.0795
     20 C          20.9091   75.0575    4.4115 C.ar    1  UNL1        0.0869
     21 O          22.4185   71.9620    4.0729 O.2     1  UNL1       -0.2464
     22 O          22.0198   74.5211    7.6791 O.2     1  UNL1       -0.2670
     23 H          22.7254   72.5330    6.4234 H       1  UNL1        0.1734
     24 O          20.2913   71.5051   -2.2674 O.3     1  UNL1       -0.2703
     25 P          18.7207   71.6148   -2.6057 P.3     1  UNL1        0.2208
     26 O          18.0114   70.1965   -2.3243 O.3     1  UNL1       -0.4371
     27 O          18.1032   72.6526   -1.7514 O.2     1  UNL1       -0.5170
     28 O          18.5320   72.0118   -4.1546 O.3     1  UNL1       -0.2865
     29 C          19.3224   71.4505   -5.2041 C.3     1  UNL1        0.2611
     30 C          20.0597   72.5697   -5.9434 C.3     1  UNL1        0.1582
     31 C          19.0332   73.5082   -6.5854 C.3     1  UNL1        0.1625
     32 C          18.1271   72.6968   -7.5154 C.3     1  UNL1        0.1686
     33 C          17.4642   71.5725   -6.7152 C.3     1  UNL1        0.1760
     34 O          19.7129   74.5146   -7.3393 O.3     1  UNL1       -0.3801
     35 O          18.9075   72.1355   -8.5724 O.3     1  UNL1       -0.3794
     36 O          18.4735   70.7550   -6.1194 O.3     1  UNL1       -0.3263
     37 H          19.1228   75.1458   -7.7736 H       1  UNL1        0.2105
     38 H          18.3968   71.6064   -9.2011 H       1  UNL1        0.2105
     39 C          22.2249   73.3429   -5.1364 C.2     1  UNL1        0.2231
     40 C          23.0741   74.1162   -4.1619 C.3     1  UNL1        0.0946
     41 N          20.8849   73.3218   -4.9949 N.am    1  UNL1       -0.2994
     42 O          22.7472   72.7385   -6.0497 O.2     1  UNL1       -0.2751
     43 H          20.4670   73.8041   -4.2643 H       1  UNL1        0.1496
     44 C          16.6034   70.7206   -7.6500 C.3     1  UNL1        0.1693
     45 O          16.0214   69.6433   -6.9131 O.3     1  UNL1       -0.3794
     46 H          15.4613   69.0605   -7.4437 H       1  UNL1        0.2105
@<TRIPOS>BOND
     1    29    30    1
     2    30    41    1
     3    30    31    1
     4    31    34    1
     5    31    32    1
     6    32    35    1
     7    32    33    1
     8    33    36    1
     9    33    44    1
    10    39    40    1
    11    39    42    2
    12    39    41   am
    13    41    43    1
    14    29    28    1
    15    34    37    1
    16    35    38    1
    17    29    36    1
    18    44    45    1
    19    45    46    1
    20    15     6    1
    21    15    16   ar
    22    16    21    2
    23    16    17   ar
    24    17    23    1
    25    17    18   ar
    26    18    19   ar
    27    19    20   ar
    28    15    20   ar
    29    18    22    2
    30     6     7    1
    31     6    11    1
    32     7     9    1
    33     7     8    1
    34     8    13    1
    35     9    10    1
    36     9    12    1
    37    10     5    1
    38    10    11    1
    39    12    14    1
    40     5     4    1
    41     4     1    1
    42     1     2    1
    43     1    24    1
    44     1     3    2
    45    24    25    1
    46    28    25    1
    47    25    26    1
    48    25    27    2
@<TRIPOS>MOLECULE
UD2
 46 48 0 0 0
SMALL
GASTEIGER

@<TRIPOS>ATOM
      1 P          21.4732   73.2690   -5.9479 P.3     1  UNL1        0.2189
      2 O          22.6087   72.6044   -6.8755 O.3     1  UNL1       -0.4371
      3 O          21.5817   74.7430   -6.0139 O.2     1  UNL1       -0.5170
      4 O          20.0194   72.8138   -6.4705 O.3     1  UNL1       -0.3112
      5 C          19.7679   71.5322   -7.0498 C.3     1  UNL1        0.1811
      6 C          16.6425   72.9486   -8.1277 C.3     1  UNL1        0.2383
      7 C          17.7089   73.6328   -9.0203 C.3     1  UNL1        0.1895
      8 O          17.1685   73.9575  -10.3026 O.3     1  UNL1       -0.3779
      9 C          18.7895   72.5304   -9.1392 C.3     1  UNL1        0.1713
     10 C          18.5211   71.6085   -7.9344 C.3     1  UNL1        0.1764
     11 O          17.4305   72.1790   -7.1937 O.3     1  UNL1       -0.3308
     12 O          18.6358   71.8112  -10.3639 O.3     1  UNL1       -0.3794
     13 H          17.7976   74.3881  -10.8972 H       1  UNL1        0.2106
     14 H          18.7359   72.3560  -11.1561 H       1  UNL1        0.2105
     15 N          15.8396   73.9505   -7.4231 N.ar    1  UNL1       -0.2551
     16 C          14.7096   74.4147   -7.9856 C.ar    1  UNL1        0.3323
     17 N          13.9523   75.3358   -7.3608 N.ar    1  UNL1       -0.2743
     18 C          14.3181   75.8083   -6.1518 C.ar    1  UNL1        0.2626
     19 C          15.5047   75.3278   -5.5476 C.ar    1  UNL1        0.0795
     20 C          16.2424   74.4012   -6.1948 C.ar    1  UNL1        0.0869
     21 O          14.3674   73.9974   -9.0752 O.2     1  UNL1       -0.2464
     22 O          13.6334   76.6417   -5.5851 O.2     1  UNL1       -0.2670
     23 H          13.1411   75.6606   -7.7810 H       1  UNL1        0.1734
     24 O          21.6716   72.7834   -4.4253 O.3     1  UNL1       -0.2703
     25 P          22.7552   73.1104   -3.2800 P.3     1  UNL1        0.2208
     26 O          24.2367   73.0408   -3.9079 O.3     1  UNL1       -0.4371
     27 O          22.5112   74.4668   -2.7423 O.2     1  UNL1       -0.5170
     28 O          22.6237   72.0304   -2.0930 O.3     1  UNL1       -0.2865
     29 C          21.4942   71.9662   -1.2205 C.3     1  UNL1        0.2611
     30 C          20.2069   71.9880   -2.0483 C.3     1  UNL1        0.1582
     31 C          20.1266   73.3107   -2.8167 C.3     1  UNL1        0.1625
     32 C          20.1963   74.4720   -1.8213 C.3     1  UNL1        0.1686
     33 C          21.4843   74.3545   -1.0020 C.3     1  UNL1        0.1760
     34 O          18.8924   73.3710   -3.5352 O.3     1  UNL1       -0.3801
     35 O          19.0673   74.4203   -0.9472 O.3     1  UNL1       -0.3794
     36 O          21.5104   73.0897   -0.3374 O.3     1  UNL1       -0.3263
     37 H          18.7745   74.1835   -4.0463 H       1  UNL1        0.2105
     38 H          19.0467   75.1281   -0.2879 H       1  UNL1        0.2105
     39 C          19.1085   70.1215   -3.1652 C.2     1  UNL1        0.2231
     40 C          19.1167   68.9730   -4.1396 C.3     1  UNL1        0.0946
     41 N          20.2158   70.8709   -2.9962 N.am    1  UNL1       -0.2994
     42 O          18.1046   70.3726   -2.5317 O.2     1  UNL1       -0.2751
     43 H          21.0189   70.6699   -3.5017 H       1  UNL1        0.1496
     44 C          21.5326   75.4774    0.0358 C.3     1  UNL1        0.1693
     45 O          21.5873   74.9128    1.3475 O.3     1  UNL1       -0.3794
     46 H          21.6200   75.5684    2.0575 H       1  UNL1        0.2105
@<TRIPOS>BOND
     1    29    30    1
     2    30    41    1
     3    30    31    1
     4    31    34    1
     5    31    32    1
     6    32    35    1
     7    32    33    1
     8    33    36    1
     9    33    44    1
    10    39    40    1
    11    39    42    2
    12    39    41   am
    13    41    43    1
    14    29    28    1
    15    34    37    1
    16    35    38    1
    17    29    36    1
    18    44    45    1
    19    45    46    1
    20    15     6    1
    21    15    16   ar
    22    16    21    2
    23    16    17   ar
    24    17    23    1
    25    17    18   ar
    26    18    19   ar
    27    19    20   ar
    28    15    20   ar
    29    18    22    2
    30     6     7    1
    31     6    11    1
    32     7     9    1
    33     7     8    1
    34     8    13    1
    35     9    10    1
    36     9    12    1
    37    10     5    1
    38    10    11    1
    39    12    14    1
    40     5     4    1
    41     4     1    1
    42     1     2    1
    43     1    24    1
    44     1     3    2
    45    24    25    1
    46    28    25    1
    47    25    26    1
    48    25    27    2
@<TRIPOS>MOLECULE
UD2
 46 48 0 0 0
SMALL
GASTEIGER

@<TRIPOS>ATOM
      1 P          19.5129   70.2096   -2.6143 P.3     1  UNL1        0.2189
      2 O          20.6336   69.2390   -3.2414 O.3     1  UNL1       -0.4371
      3 O          18.2749   69.4387   -2.3654 O.2     1  UNL1       -0.5170
      4 O          20.0510   70.8237   -1.2261 O.3     1  UNL1       -0.3112
      5 C          20.6002   72.1384   -1.1189 C.3     1  UNL1        0.1811
      6 C          22.8969   72.2528    1.6466 C.3     1  UNL1        0.2383
      7 C          22.5239   70.7545    1.5115 C.3     1  UNL1        0.1895
      8 O          23.6086   69.9198    1.9219 O.3     1  UNL1       -0.3779
      9 C          22.2674   70.6190   -0.0094 C.3     1  UNL1        0.1713
     10 C          21.9860   72.0608   -0.4737 C.3     1  UNL1        0.1764
     11 O          22.0310   72.9016    0.6902 O.3     1  UNL1       -0.3308
     12 O          23.4244   70.0985   -0.6660 O.3     1  UNL1       -0.3794
     13 H          23.4235   68.9732    1.8562 H       1  UNL1        0.2106
     14 H          23.6823   69.2155   -0.3690 H       1  UNL1        0.2105
     15 N          22.6203   72.7330    3.0023 N.ar    1  UNL1       -0.2551
     16 C          21.3927   72.5742    3.5281 C.ar    1  UNL1        0.3323
     17 N          21.1103   73.0060    4.7714 N.ar    1  UNL1       -0.2743
     18 C          22.0623   73.6069    5.5138 C.ar    1  UNL1        0.2626
     19 C          23.3593   73.7797    4.9733 C.ar    1  UNL1        0.0795
     20 C          23.6156   73.3333    3.7257 C.ar    1  UNL1        0.0869
     21 O          20.5245   72.0339    2.8702 O.2     1  UNL1       -0.2464
     22 O          21.8081   73.9978    6.6394 O.2     1  UNL1       -0.2670
     23 H          20.2196   72.8846    5.1348 H       1  UNL1        0.1734
     24 O          19.2018   71.4070   -3.6452 O.3     1  UNL1       -0.2703
     25 P          19.8069   71.8374   -5.0740 P.3     1  UNL1        0.2208
     26 O          21.4070   71.9789   -4.9580 O.3     1  UNL1       -0.4371
     27 O          19.4752   70.8062   -6.0814 O.2     1  UNL1       -0.5170
     28 O          19.1740   73.2487   -5.5216 O.3     1  UNL1       -0.2865
     29 C          17.8529   73.3767   -6.0504 C.3     1  UNL1        0.2611
     30 C          17.0394   72.1281   -5.7013 C.3     1  UNL1        0.1582
     31 C          17.6875   70.9064   -6.3598 C.3     1  UNL1        0.1625
     32 C          17.7734   71.1396   -7.8706 C.3     1  UNL1        0.1686
     33 C          18.5590   72.4266   -8.1361 C.3     1  UNL1        0.1760
     34 O          16.8933   69.7467   -6.0999 O.3     1  UNL1       -0.3801
     35 O          16.4564   71.2633   -8.4105 O.3     1  UNL1       -0.3794
     36 O          17.9205   73.5183   -7.4708 O.3     1  UNL1       -0.3263
     37 H          17.2460   68.9340   -6.4877 H       1  UNL1        0.2105
     38 H          16.4348   71.4138   -9.3659 H       1  UNL1        0.2105
     39 C          15.8965   72.2127   -3.5509 C.2     1  UNL1        0.2231
     40 C          15.8749   72.0273   -2.0563 C.3     1  UNL1        0.0946
     41 N          17.0193   71.9478   -4.2475 N.am    1  UNL1       -0.2994
     42 O          14.9025   72.6007   -4.1286 O.2     1  UNL1       -0.2751
     43 H          17.8144   71.6385   -3.7859 H       1  UNL1        0.1496
     44 C          18.5982   72.6986   -9.6410 C.3     1  UNL1        0.1693
     45 O          18.6487   71.4582  -10.3489 O.3     1  UNL1       -0.3794
     46 H          18.6757   71.5544  -11.3107 H       1  UNL1        0.2105
@<TRIPOS>BOND
     1    29    30    1
     2    30    41    1
     3    30    31    1
     4    31    34    1
     5    31    32    1
     6    32    35    1
     7    32    33    1
     8    33    36    1
     9    33    44    1
    10    39    40    1
    11    39    42    2
    12    39    41   am
    13    41    43    1
    14    29    28    1
    15    34    37    1
    16    35    38    1
    17    29    36    1
    18    44    45    1
    19    45    46    1
    20    15     6    1
    21    15    16   ar
    22    16    21    2
    23    16    17   ar
    24    17    23    1
    25    17    18   ar
    26    18    19   ar
    27    19    20   ar
    28    15    20   ar
    29    18    22    2
    30     6     7    1
    31     6    11    1
    32     7     9    1
    33     7     8    1
    34     8    13    1
    35     9    10    1
    36     9    12    1
    37    10     5    1
    38    10    11    1
    39    12    14    1
    40     5     4    1
    41     4     1    1
    42     1     2    1
    43     1    24    1
    44     1     3    2
    45    24    25    1
    46    28    25    1
    47    25    26    1
    48    25    27    2
