@<TRIPOS>MOLECULE
*****
 43 45 0 0 0
SMALL
GASTEIGER

@<TRIPOS>ATOM
      1 P          21.8603   73.8890   -6.1210 P.3     1  UNL1        0.2189
      2 O          20.9401   74.8289   -5.1783 O.co2   1  UNL1       -0.4371
      3 O          23.0677   74.5639   -6.7028 O.2     1  UNL1       -0.5170
      4 O          20.8162   73.2717   -7.1918 O.3     1  UNL1       -0.3112
      5 C          21.2905   72.3217   -8.1282 C.3     1  UNL1        0.1811
      6 O          19.6031   70.6205   -8.3197 O.3     1  UNL1       -0.3308
      7 O          18.1888   72.4951  -10.1844 O.3     1  UNL1       -0.3794
      8 O          16.8168   72.8276   -7.8513 O.3     1  UNL1       -0.3779
      9 C          18.9519   72.7895   -9.0141 C.3     1  UNL1        0.1713
     10 C          18.1679   72.4242   -7.7715 C.3     1  UNL1        0.1895
     11 C          20.1172   71.8112   -8.9547 C.3     1  UNL1        0.1764
     12 C          18.3258   70.9137   -7.7317 C.3     1  UNL1        0.2383
     13 H          17.4384   73.1075  -10.2440 H       1  UNL1        0.2105
     14 H          16.7696   73.7968   -7.8737 H       1  UNL1        0.2106
     15 O          16.1307   69.5455   -6.5976 O.2     1  UNL1       -0.2464
     16 O          18.3290   68.9672   -2.5879 O.2     1  UNL1       -0.2670
     17 N          18.2976   70.3949   -6.3935 N.ar    1  UNL1       -0.2551
     18 N          17.2273   69.2597   -4.6013 N.ar    1  UNL1       -0.2743
     19 C          17.1453   69.7234   -5.9209 C.ar    1  UNL1        0.3323
     20 C          19.4025   70.5516   -5.5654 C.ar    1  UNL1        0.0869
     21 C          19.4658   70.1041   -4.3099 C.ar    1  UNL1        0.0795
     22 C          18.3037   69.3921   -3.7390 C.ar    1  UNL1        0.2626
     23 H          16.4364   68.7907   -4.2493 H       1  UNL1        0.1734
     24 O          22.1891   72.6276   -5.1653 O.3     1  UNL1       -0.2703
     25 P          23.0674   72.5216   -3.8121 P.3     1  UNL1        0.2208
     26 O          24.2267   73.6291   -4.0359 O.co2   1  UNL1       -0.4371
     27 O          23.5794   71.1415   -3.5168 O.2     1  UNL1       -0.5170
     28 O          22.1243   73.1462   -2.6620 O.3     1  UNL1       -0.2858
     29 O          21.4916   71.2029   -1.4652 O.3     1  UNL1       -0.3226
     30 O          20.1152   74.2044    1.0175 O.3     1  UNL1       -0.3794
     31 O          19.7699   74.4018   -1.8767 O.3     1  UNL1       -0.3775
     32 O          22.5320   72.7400    1.6997 O.3     1  UNL1       -0.3792
     33 C          20.9880   73.6009    0.0626 C.3     1  UNL1        0.1718
     34 C          20.1964   73.2298   -1.1916 C.3     1  UNL1        0.1968
     35 C          21.5928   72.3481    0.7003 C.3     1  UNL1        0.1723
     36 C          21.0414   72.3782   -2.1400 C.3     1  UNL1        0.2706
     37 C          22.3123   71.4881   -0.3347 C.3     1  UNL1        0.1830
     38 H          19.7190   75.0029    0.6343 H       1  UNL1        0.2105
     39 H          19.2334   74.9470   -1.2807 H       1  UNL1        0.2106
     40 H          22.0867   73.2882    2.3647 H       1  UNL1        0.2106
     41 O          21.4617   69.4962    0.5655 O.co2   1  UNL1       -0.5466
     42 O          23.7250   69.6510    0.3366 O.co2   1  UNL1       -0.5466
     43 C          22.6079   70.1311    0.2162 C.2     1  UNL1        0.0799
@<TRIPOS>UNITY_ATOM_ATTR
2 1
charge -1
26 1
charge -1
41 1
charge -1
@<TRIPOS>BOND
     1     1     4    1
     2     1    24    1
     3     1     2    1
     4     1     3    2
     5    25    28    1
     6    25    24    1
     7    25    26    1
     8    25    27    2
     9     6    11    1
    10     6    12    1
    11    29    36    1
    12    29    37    1
    13     7     9    1
    14     7    13    1
    15     8    10    1
    16     8    14    1
    17     4     5    1
    18    28    36    1
    19    30    33    1
    20    30    38    1
    21    31    34    1
    22    31    39    1
    23    32    35    1
    24    32    40    1
    25    41    43   ar
    26    15    19    2
    27    42    43   ar
    28    16    22    2
    29    17    12    1
    30    17    19   ar
    31    17    20   ar
    32    18    19   ar
    33    18    22   ar
    34    18    23    1
    35     9    10    1
    36     9    11    1
    37    10    12    1
    38    11     5    1
    39    33    34    1
    40    33    35    1
    41    34    36    1
    42    35    37    1
    43    37    43    1
    44    20    21   ar
    45    21    22   ar
@<TRIPOS>MOLECULE
*****
 43 45 0 0 0
SMALL
GASTEIGER

@<TRIPOS>ATOM
      1 P          22.9655   71.6821   -2.8177 P.3     1  UNL1        0.2189
      2 O          23.7846   73.0006   -3.2755 O.co2   1  UNL1       -0.4371
      3 O          23.5940   70.3775   -3.2109 O.2     1  UNL1       -0.5170
      4 O          21.4701   71.9392   -3.3796 O.3     1  UNL1       -0.3112
      5 C          20.6089   70.8275   -3.5431 C.3     1  UNL1        0.1811
      6 O          18.7606   71.8967   -4.6470 O.3     1  UNL1       -0.3308
      7 O          17.0315   70.6954   -2.5118 O.3     1  UNL1       -0.3794
      8 O          16.6197   69.0209   -4.6243 O.3     1  UNL1       -0.3779
      9 C          18.1876   70.1526   -3.1501 C.3     1  UNL1        0.1713
     10 C          17.8500   69.7111   -4.5585 C.3     1  UNL1        0.1895
     11 C          19.1655   71.2927   -3.3993 C.3     1  UNL1        0.1764
     12 C          17.8191   71.0340   -5.3047 C.3     1  UNL1        0.2383
     13 H          16.3920   69.9855   -2.3424 H       1  UNL1        0.2105
     14 H          16.6908   68.1859   -4.1347 H       1  UNL1        0.2106
     15 O          16.0221   70.4283   -7.3977 O.2     1  UNL1       -0.2464
     16 O          19.3800   70.5240  -10.5536 O.2     1  UNL1       -0.2670
     17 N          18.1969   70.8948   -6.6827 N.ar    1  UNL1       -0.2551
     18 N          17.6964   70.4755   -8.9674 N.ar    1  UNL1       -0.2743
     19 C          17.2165   70.5889   -7.6560 C.ar    1  UNL1        0.3323
     20 C          19.5242   71.0624   -7.0582 C.ar    1  UNL1        0.0869
     21 C          19.9665   70.9514   -8.3124 C.ar    1  UNL1        0.0795
     22 C          19.0066   70.6327   -9.3896 C.ar    1  UNL1        0.2626
     23 H          17.0327   70.2610   -9.6623 H       1  UNL1        0.1734
     24 O          22.7965   71.8950   -1.2243 O.3     1  UNL1       -0.2703
     25 P          22.4389   70.8479   -0.0456 P.3     1  UNL1        0.2208
     26 O          23.7005   69.8338   -0.0563 O.co2   1  UNL1       -0.4371
     27 O          21.1049   70.1770   -0.2017 O.2     1  UNL1       -0.5170
     28 O          22.6076   71.6933    1.3180 O.3     1  UNL1       -0.2858
     29 O          21.7294   72.3753    3.4092 O.3     1  UNL1       -0.3226
     30 O          21.1626   75.7634    1.1141 O.3     1  UNL1       -0.3794
     31 O          20.6082   73.1164    0.0091 O.3     1  UNL1       -0.3775
     32 O          23.3126   75.6676    3.0683 O.3     1  UNL1       -0.3792
     33 C          21.8198   74.5665    1.5307 C.3     1  UNL1        0.1718
     34 C          20.8659   73.3809    1.3833 C.3     1  UNL1        0.1968
     35 C          22.2327   74.7387    2.9942 C.3     1  UNL1        0.1723
     36 C          21.4501   72.1248    2.0312 C.3     1  UNL1        0.2706
     37 C          22.6849   73.4154    3.6048 C.3     1  UNL1        0.1830
     38 H          20.8909   75.6772    0.1867 H       1  UNL1        0.2105
     39 H          20.2376   73.9093   -0.4083 H       1  UNL1        0.2106
     40 H          23.0379   76.5142    2.6828 H       1  UNL1        0.2106
     41 O          23.9808   73.9922    5.4728 O.co2   1  UNL1       -0.5466
     42 O          21.8713   73.2223    5.8680 O.co2   1  UNL1       -0.5466
     43 C          22.7682   73.5188    5.0930 C.2     1  UNL1        0.0799
@<TRIPOS>UNITY_ATOM_ATTR
2 1
charge -1
26 1
charge -1
41 1
charge -1
@<TRIPOS>BOND
     1     1     4    1
     2     1    24    1
     3     1     2    1
     4     1     3    2
     5    25    28    1
     6    25    24    1
     7    25    26    1
     8    25    27    2
     9     6    11    1
    10     6    12    1
    11    29    36    1
    12    29    37    1
    13     7     9    1
    14     7    13    1
    15     8    10    1
    16     8    14    1
    17     4     5    1
    18    28    36    1
    19    30    33    1
    20    30    38    1
    21    31    34    1
    22    31    39    1
    23    32    35    1
    24    32    40    1
    25    41    43   ar
    26    15    19    2
    27    42    43   ar
    28    16    22    2
    29    17    12    1
    30    17    19   ar
    31    17    20   ar
    32    18    19   ar
    33    18    22   ar
    34    18    23    1
    35     9    10    1
    36     9    11    1
    37    10    12    1
    38    11     5    1
    39    33    34    1
    40    33    35    1
    41    34    36    1
    42    35    37    1
    43    37    43    1
    44    20    21   ar
    45    21    22   ar
@<TRIPOS>MOLECULE
*****
 43 45 0 0 0
SMALL
GASTEIGER

@<TRIPOS>ATOM
      1 P          22.8461   71.8206   -2.3537 P.3     1  UNL1        0.2189
      2 O          23.5746   73.2612   -2.4666 O.co2   1  UNL1       -0.4371
      3 O          23.4164   70.7512   -3.2386 O.2     1  UNL1       -0.5170
      4 O          21.2800   72.1583   -2.5797 O.3     1  UNL1       -0.3112
      5 C          20.5668   71.4318   -3.5636 C.3     1  UNL1        0.1811
      6 O          18.6189   72.2222   -4.7292 O.3     1  UNL1       -0.3308
      7 O          17.0220   71.0164   -2.4960 O.3     1  UNL1       -0.3794
      8 O          16.7812   69.1543   -4.4736 O.3     1  UNL1       -0.3779
      9 C          18.2268   70.5468   -3.1013 C.3     1  UNL1        0.1713
     10 C          17.9351   69.9686   -4.4698 C.3     1  UNL1        0.1895
     11 C          19.0837   71.7580   -3.4432 C.3     1  UNL1        0.1764
     12 C          17.7695   71.2215   -5.3128 C.3     1  UNL1        0.2383
     13 H          16.4579   70.2601   -2.2686 H       1  UNL1        0.2105
     14 H          16.9370   68.3701   -3.9234 H       1  UNL1        0.2106
     15 O          16.0201   70.3672   -7.3589 O.2     1  UNL1       -0.2464
     16 O          19.3724   70.4736  -10.5204 O.2     1  UNL1       -0.2670
     17 N          18.1587   71.0178   -6.6795 N.ar    1  UNL1       -0.2551
     18 N          17.6916   70.4200   -8.9313 N.ar    1  UNL1       -0.2743
     19 C          17.2023   70.5871   -7.6291 C.ar    1  UNL1        0.3323
     20 C          19.4734   71.2457   -7.0675 C.ar    1  UNL1        0.0869
     21 C          19.9250   71.0822   -8.3126 C.ar    1  UNL1        0.0795
     22 C          18.9900   70.6333   -9.3651 C.ar    1  UNL1        0.2626
     23 H          17.0447   70.1187   -9.6096 H       1  UNL1        0.1734
     24 O          22.9237   71.4977   -0.7717 O.3     1  UNL1       -0.2703
     25 P          22.0495   70.4995    0.1519 P.3     1  UNL1        0.2208
     26 O          23.1747   69.6133    0.9064 O.co2   1  UNL1       -0.4371
     27 O          21.0321   69.6943   -0.6033 O.2     1  UNL1       -0.5170
     28 O          21.4336   71.4437    1.3059 O.3     1  UNL1       -0.2858
     29 O          22.0208   73.7296    1.1082 O.3     1  UNL1       -0.3226
     30 O          20.2349   73.6393    4.8325 O.3     1  UNL1       -0.3794
     31 O          22.0621   71.5117    4.0145 O.3     1  UNL1       -0.3775
     32 O          18.8048   74.7430    2.5549 O.3     1  UNL1       -0.3792
     33 C          20.4457   73.2397    3.4783 C.3     1  UNL1        0.1718
     34 C          21.8791   72.7349    3.3109 C.3     1  UNL1        0.1968
     35 C          20.2018   74.4564    2.5828 C.3     1  UNL1        0.1723
     36 C          22.2128   72.5151    1.8347 C.3     1  UNL1        0.2706
     37 C          20.6760   74.2013    1.1550 C.3     1  UNL1        0.1830
     38 H          20.3843   72.8820    5.4203 H       1  UNL1        0.2105
     39 H          21.8519   71.6438    4.9518 H       1  UNL1        0.2106
     40 H          18.4903   74.9072    3.4577 H       1  UNL1        0.2106
     41 O          20.5023   76.5401    1.1901 O.co2   1  UNL1       -0.5466
     42 O          20.9788   75.5624   -0.8140 O.co2   1  UNL1       -0.5466
     43 C          20.7412   75.4779    0.3816 C.2     1  UNL1        0.0799
@<TRIPOS>UNITY_ATOM_ATTR
2 1
charge -1
26 1
charge -1
41 1
charge -1
@<TRIPOS>BOND
     1     1     4    1
     2     1    24    1
     3     1     2    1
     4     1     3    2
     5    25    28    1
     6    25    24    1
     7    25    26    1
     8    25    27    2
     9     6    11    1
    10     6    12    1
    11    29    36    1
    12    29    37    1
    13     7     9    1
    14     7    13    1
    15     8    10    1
    16     8    14    1
    17     4     5    1
    18    28    36    1
    19    30    33    1
    20    30    38    1
    21    31    34    1
    22    31    39    1
    23    32    35    1
    24    32    40    1
    25    41    43   ar
    26    15    19    2
    27    42    43   ar
    28    16    22    2
    29    17    12    1
    30    17    19   ar
    31    17    20   ar
    32    18    19   ar
    33    18    22   ar
    34    18    23    1
    35     9    10    1
    36     9    11    1
    37    10    12    1
    38    11     5    1
    39    33    34    1
    40    33    35    1
    41    34    36    1
    42    35    37    1
    43    37    43    1
    44    20    21   ar
    45    21    22   ar
@<TRIPOS>MOLECULE
*****
 43 45 0 0 0
SMALL
GASTEIGER

@<TRIPOS>ATOM
      1 P          22.9642   72.2614   -3.5671 P.3     1  UNL1        0.2189
      2 O          23.2953   72.7810   -5.0636 O.co2   1  UNL1       -0.4371
      3 O          23.5385   70.9189   -3.2211 O.2     1  UNL1       -0.5170
      4 O          21.3546   72.3859   -3.4599 O.3     1  UNL1       -0.3112
      5 C          20.5752   71.2116   -3.5940 C.3     1  UNL1        0.1811
      6 O          18.6500   72.0856   -4.7374 O.3     1  UNL1       -0.3308
      7 O          17.0204   70.8698   -2.5334 O.3     1  UNL1       -0.3794
      8 O          16.7264   69.0655   -4.5568 O.3     1  UNL1       -0.3779
      9 C          18.2113   70.3817   -3.1515 C.3     1  UNL1        0.1713
     10 C          17.9029   69.8465   -4.5338 C.3     1  UNL1        0.1895
     11 C          19.1020   71.5764   -3.4640 C.3     1  UNL1        0.1764
     12 C          17.7724   71.1243   -5.3450 C.3     1  UNL1        0.2383
     13 H          16.4353   70.1243   -2.3244 H       1  UNL1        0.2105
     14 H          16.8602   68.2636   -4.0266 H       1  UNL1        0.2106
     15 O          15.9944   70.3939   -7.4142 O.2     1  UNL1       -0.2464
     16 O          19.3519   70.4610  -10.5711 O.2     1  UNL1       -0.2670
     17 N          18.1553   70.9441   -6.7168 N.ar    1  UNL1       -0.2551
     18 N          17.6685   70.4270   -8.9843 N.ar    1  UNL1       -0.2743
     19 C          17.1843   70.5763   -7.6781 C.ar    1  UNL1        0.3323
     20 C          19.4781   71.1327   -7.0982 C.ar    1  UNL1        0.0869
     21 C          19.9246   70.9868   -8.3472 C.ar    1  UNL1        0.0795
     22 C          18.9746   70.6031   -9.4120 C.ar    1  UNL1        0.2626
     23 H          17.0115   70.1693   -9.6708 H       1  UNL1        0.1734
     24 O          23.4854   73.4767   -2.6375 O.3     1  UNL1       -0.2703
     25 P          22.7003   74.7386   -2.0013 P.3     1  UNL1        0.2208
     26 O          21.2998   74.7502   -2.8130 O.co2   1  UNL1       -0.4371
     27 O          23.4610   76.0315   -2.0621 O.2     1  UNL1       -0.5170
     28 O          22.3033   74.2648   -0.5112 O.3     1  UNL1       -0.2858
     29 O          21.5094   72.0378   -0.3738 O.3     1  UNL1       -0.3226
     30 O          20.6882   73.4585    3.4177 O.3     1  UNL1       -0.3794
     31 O          20.1829   75.1232    1.0708 O.3     1  UNL1       -0.3775
     32 O          22.9398   71.6713    2.9851 O.3     1  UNL1       -0.3792
     33 C          21.4137   73.3587    2.1922 C.3     1  UNL1        0.1718
     34 C          20.5014   73.7372    1.0252 C.3     1  UNL1        0.1968
     35 C          21.8955   71.9137    2.0443 C.3     1  UNL1        0.1723
     36 C          21.1684   73.4233   -0.3147 C.3     1  UNL1        0.2706
     37 C          22.4315   71.6462    0.6408 C.3     1  UNL1        0.1830
     38 H          20.3720   74.3684    3.5333 H       1  UNL1        0.2105
     39 H          19.7595   75.3295    1.9185 H       1  UNL1        0.2106
     40 H          22.6117   71.8381    3.8825 H       1  UNL1        0.2106
     41 O          21.3918   69.5485    0.4985 O.co2   1  UNL1       -0.5466
     42 O          23.6449   69.6180    0.1554 O.co2   1  UNL1       -0.5466
     43 C          22.5884   70.1794    0.4036 C.2     1  UNL1        0.0799
@<TRIPOS>UNITY_ATOM_ATTR
2 1
charge -1
26 1
charge -1
41 1
charge -1
@<TRIPOS>BOND
     1     1     4    1
     2     1    24    1
     3     1     2    1
     4     1     3    2
     5    25    28    1
     6    25    24    1
     7    25    26    1
     8    25    27    2
     9     6    11    1
    10     6    12    1
    11    29    36    1
    12    29    37    1
    13     7     9    1
    14     7    13    1
    15     8    10    1
    16     8    14    1
    17     4     5    1
    18    28    36    1
    19    30    33    1
    20    30    38    1
    21    31    34    1
    22    31    39    1
    23    32    35    1
    24    32    40    1
    25    41    43   ar
    26    15    19    2
    27    42    43   ar
    28    16    22    2
    29    17    12    1
    30    17    19   ar
    31    17    20   ar
    32    18    19   ar
    33    18    22   ar
    34    18    23    1
    35     9    10    1
    36     9    11    1
    37    10    12    1
    38    11     5    1
    39    33    34    1
    40    33    35    1
    41    34    36    1
    42    35    37    1
    43    37    43    1
    44    20    21   ar
    45    21    22   ar
@<TRIPOS>MOLECULE
*****
 43 45 0 0 0
SMALL
GASTEIGER

@<TRIPOS>ATOM
      1 P          22.9756   72.0977   -3.2360 P.3     1  UNL1        0.2189
      2 O          23.8497   72.9071   -4.3313 O.co2   1  UNL1       -0.4371
      3 O          23.5027   70.7374   -2.8845 O.2     1  UNL1       -0.5170
      4 O          21.4724   72.1359   -3.8334 O.3     1  UNL1       -0.3112
      5 C          20.6583   70.9865   -3.6897 C.3     1  UNL1        0.1811
      6 O          18.7645   71.9668   -4.7989 O.3     1  UNL1       -0.3308
      7 O          17.1048   70.8107   -2.5853 O.3     1  UNL1       -0.3794
      8 O          16.6955   69.0441   -4.6219 O.3     1  UNL1       -0.3779
      9 C          18.2619   70.2705   -3.2239 C.3     1  UNL1        0.1713
     10 C          17.9095   69.7655   -4.6070 C.3     1  UNL1        0.1895
     11 C          19.2069   71.4227   -3.5365 C.3     1  UNL1        0.1764
     12 C          17.8325   71.0565   -5.4040 C.3     1  UNL1        0.2383
     13 H          16.4860   70.0931   -2.3757 H       1  UNL1        0.2105
     14 H          16.7960   68.2312   -4.1013 H       1  UNL1        0.2106
     15 O          15.9953   70.4281   -7.4549 O.2     1  UNL1       -0.2464
     16 O          19.3100   70.3700  -10.6569 O.2     1  UNL1       -0.2670
     17 N          18.1883   70.8716   -6.7824 N.ar    1  UNL1       -0.2551
     18 N          17.6481   70.3987   -9.0475 N.ar    1  UNL1       -0.2743
     19 C          17.1887   70.5580   -7.7335 C.ar    1  UNL1        0.3323
     20 C          19.5133   71.0026   -7.1803 C.ar    1  UNL1        0.0869
     21 C          19.9358   70.8480   -8.4366 C.ar    1  UNL1        0.0795
     22 C          18.9551   70.5184   -9.4915 C.ar    1  UNL1        0.2626
     23 H          16.9708   70.1780   -9.7271 H       1  UNL1        0.1734
     24 O          22.9002   73.1317   -1.9959 O.3     1  UNL1       -0.2703
     25 P          22.0442   73.0846   -0.6252 P.3     1  UNL1        0.2208
     26 O          22.8262   71.9788    0.2614 O.co2   1  UNL1       -0.4371
     27 O          20.5832   72.7996   -0.8210 O.2     1  UNL1       -0.5170
     28 O          22.3607   74.4887    0.1034 O.3     1  UNL1       -0.2858
     29 O          24.7209   74.6680    0.1833 O.3     1  UNL1       -0.3226
     30 O          23.5478   78.2592    1.8552 O.3     1  UNL1       -0.3794
     31 O          22.1750   75.7788    2.5605 O.3     1  UNL1       -0.3775
     32 O          24.5501   78.1778   -0.8723 O.3     1  UNL1       -0.3792
     33 C          23.4418   77.1276    0.9914 C.3     1  UNL1        0.1718
     34 C          23.3925   75.8485    1.8274 C.3     1  UNL1        0.1968
     35 C          24.6665   77.1168    0.0738 C.3     1  UNL1        0.1723
     36 C          23.5105   74.6093    0.9389 C.3     1  UNL1        0.2706
     37 C          24.7828   75.7977   -0.6845 C.3     1  UNL1        0.1830
     38 H          22.7802   78.2868    2.4479 H       1  UNL1        0.2105
     39 H          22.0934   76.5622    3.1262 H       1  UNL1        0.2106
     40 H          24.4752   79.0232   -0.4026 H       1  UNL1        0.2106
     41 O          26.0263   75.1715   -2.5721 O.co2   1  UNL1       -0.5466
     42 O          27.1884   75.9587   -0.7752 O.co2   1  UNL1       -0.5466
     43 C          26.1316   75.6644   -1.3132 C.2     1  UNL1        0.0799
@<TRIPOS>UNITY_ATOM_ATTR
2 1
charge -1
26 1
charge -1
41 1
charge -1
@<TRIPOS>BOND
     1     1     4    1
     2     1    24    1
     3     1     2    1
     4     1     3    2
     5    25    28    1
     6    25    24    1
     7    25    26    1
     8    25    27    2
     9     6    11    1
    10     6    12    1
    11    29    36    1
    12    29    37    1
    13     7     9    1
    14     7    13    1
    15     8    10    1
    16     8    14    1
    17     4     5    1
    18    28    36    1
    19    30    33    1
    20    30    38    1
    21    31    34    1
    22    31    39    1
    23    32    35    1
    24    32    40    1
    25    41    43   ar
    26    15    19    2
    27    42    43   ar
    28    16    22    2
    29    17    12    1
    30    17    19   ar
    31    17    20   ar
    32    18    19   ar
    33    18    22   ar
    34    18    23    1
    35     9    10    1
    36     9    11    1
    37    10    12    1
    38    11     5    1
    39    33    34    1
    40    33    35    1
    41    34    36    1
    42    35    37    1
    43    37    43    1
    44    20    21   ar
    45    21    22   ar
@<TRIPOS>MOLECULE
*****
 43 45 0 0 0
SMALL
GASTEIGER

@<TRIPOS>ATOM
      1 P          21.9315   71.1979   -1.1172 P.3     1  UNL1        0.2189
      2 O          23.3232   70.4144   -1.3785 O.co2   1  UNL1       -0.4371
      3 O          20.8860   70.4062   -0.3879 O.2     1  UNL1       -0.5170
      4 O          21.5087   71.7381   -2.5826 O.3     1  UNL1       -0.3112
      5 C          20.6699   70.9282   -3.3857 C.3     1  UNL1        0.1811
      6 O          18.8403   72.0203   -4.4981 O.3     1  UNL1       -0.3308
      7 O          17.0875   70.8464   -2.3671 O.3     1  UNL1       -0.3794
      8 O          16.6606   69.1738   -4.4781 O.3     1  UNL1       -0.3779
      9 C          18.2383   70.2868   -3.0003 C.3     1  UNL1        0.1713
     10 C          17.8999   69.8475   -4.4091 C.3     1  UNL1        0.1895
     11 C          19.2325   71.4132   -3.2480 C.3     1  UNL1        0.1764
     12 C          17.8895   71.1693   -5.1577 C.3     1  UNL1        0.2383
     13 H          16.4378   70.1455   -2.1987 H       1  UNL1        0.2105
     14 H          16.7186   68.3388   -3.9868 H       1  UNL1        0.2106
     15 O          16.1243   70.4145   -7.2292 O.2     1  UNL1       -0.2464
     16 O          19.4606   70.6376  -10.4015 O.2     1  UNL1       -0.2670
     17 N          18.2704   71.0226   -6.5341 N.ar    1  UNL1       -0.2551
     18 N          17.7878   70.5254   -8.8070 N.ar    1  UNL1       -0.2743
     19 C          17.3064   70.6389   -7.4962 C.ar    1  UNL1        0.3323
     20 C          19.5844   71.2592   -6.9191 C.ar    1  UNL1        0.0869
     21 C          20.0284   71.1470   -8.1725 C.ar    1  UNL1        0.0795
     22 C          19.0852   70.7496   -9.2383 C.ar    1  UNL1        0.2626
     23 H          17.1356   70.2575   -9.4941 H       1  UNL1        0.1734
     24 O          22.4092   72.5427   -0.3581 O.3     1  UNL1       -0.2703
     25 P          21.5936   73.8773    0.0510 P.3     1  UNL1        0.2208
     26 O          20.0495   73.3930    0.0140 O.co2   1  UNL1       -0.4371
     27 O          21.8890   75.0687   -0.8135 O.2     1  UNL1       -0.5170
     28 O          21.9163   74.0901    1.6172 O.3     1  UNL1       -0.2858
     29 O          23.9398   73.6562    2.7689 O.3     1  UNL1       -0.3226
     30 O          21.1348   73.0547    5.7418 O.3     1  UNL1       -0.3794
     31 O          20.6653   72.0525    3.0382 O.3     1  UNL1       -0.3775
     32 O          22.7287   75.4856    5.7097 O.3     1  UNL1       -0.3792
     33 C          21.6758   73.6478    4.5613 C.3     1  UNL1        0.1718
     34 C          21.9071   72.5667    3.5053 C.3     1  UNL1        0.1968
     35 C          22.9993   74.3199    4.9337 C.3     1  UNL1        0.1723
     36 C          22.6947   73.1216    2.3176 C.3     1  UNL1        0.2706
     37 C          23.7836   74.7322    3.6913 C.3     1  UNL1        0.1830
     38 H          20.2931   72.6214    5.5296 H       1  UNL1        0.2105
     39 H          20.1601   71.6990    3.7867 H       1  UNL1        0.2106
     40 H          22.2297   75.2371    6.5035 H       1  UNL1        0.2106
     41 O          25.5468   74.5042    5.2212 O.co2   1  UNL1       -0.5466
     42 O          25.9335   75.7794    3.3710 O.co2   1  UNL1       -0.5466
     43 C          25.1934   75.0784    4.0447 C.2     1  UNL1        0.0799
@<TRIPOS>UNITY_ATOM_ATTR
2 1
charge -1
26 1
charge -1
41 1
charge -1
@<TRIPOS>BOND
     1     1     4    1
     2     1    24    1
     3     1     2    1
     4     1     3    2
     5    25    28    1
     6    25    24    1
     7    25    26    1
     8    25    27    2
     9     6    11    1
    10     6    12    1
    11    29    36    1
    12    29    37    1
    13     7     9    1
    14     7    13    1
    15     8    10    1
    16     8    14    1
    17     4     5    1
    18    28    36    1
    19    30    33    1
    20    30    38    1
    21    31    34    1
    22    31    39    1
    23    32    35    1
    24    32    40    1
    25    41    43   ar
    26    15    19    2
    27    42    43   ar
    28    16    22    2
    29    17    12    1
    30    17    19   ar
    31    17    20   ar
    32    18    19   ar
    33    18    22   ar
    34    18    23    1
    35     9    10    1
    36     9    11    1
    37    10    12    1
    38    11     5    1
    39    33    34    1
    40    33    35    1
    41    34    36    1
    42    35    37    1
    43    37    43    1
    44    20    21   ar
    45    21    22   ar
@<TRIPOS>MOLECULE
*****
 43 45 0 0 0
SMALL
GASTEIGER

@<TRIPOS>ATOM
      1 P          22.1683   70.5341   -0.1158 P.3     1  UNL1        0.2189
      2 O          20.8460   69.8163   -0.7119 O.co2   1  UNL1       -0.4371
      3 O          23.3328   69.6184    0.1234 O.2     1  UNL1       -0.5170
      4 O          21.6249   71.3335    1.1818 O.3     1  UNL1       -0.3112
      5 C          22.5325   71.6154    2.2312 C.3     1  UNL1        0.1811
      6 O          22.6891   72.8012    4.3161 O.3     1  UNL1       -0.3308
      7 O          19.7302   73.2273    4.0824 O.3     1  UNL1       -0.3794
      8 O          20.7436   75.6243    3.2678 O.3     1  UNL1       -0.3779
      9 C          20.7233   73.2021    3.0569 C.3     1  UNL1        0.1713
     10 C          21.5436   74.4742    3.0903 C.3     1  UNL1        0.1895
     11 C          21.7561   72.1471    3.4291 C.3     1  UNL1        0.1764
     12 C          22.4716   74.2202    4.2660 C.3     1  UNL1        0.2383
     13 H          19.0591   73.8942    3.8667 H       1  UNL1        0.2105
     14 H          20.1711   75.7427    2.4931 H       1  UNL1        0.2106
     15 O          23.9008   75.4214    6.3852 O.2     1  UNL1       -0.2464
     16 O          27.3176   76.7295    3.5820 O.2     1  UNL1       -0.2670
     17 N          23.7372   74.8816    4.1180 N.ar    1  UNL1       -0.2551
     18 N          25.6007   76.0727    4.9869 N.ar    1  UNL1       -0.2743
     19 C          24.3715   75.4523    5.2467 C.ar    1  UNL1        0.3323
     20 C          24.3375   74.9585    2.8671 C.ar    1  UNL1        0.0869
     21 C          25.5094   75.5530    2.6351 C.ar    1  UNL1        0.0795
     22 C          26.2373   76.1751    3.7606 C.ar    1  UNL1        0.2626
     23 H          26.0603   76.4791    5.7568 H       1  UNL1        0.1734
     24 O          22.4498   71.7176   -1.1802 O.3     1  UNL1       -0.2703
     25 P          22.5381   71.6947   -2.7943 P.3     1  UNL1        0.2208
     26 O          23.4858   70.4173   -3.0947 O.co2   1  UNL1       -0.4371
     27 O          23.0206   72.9795   -3.4029 O.2     1  UNL1       -0.5170
     28 O          21.0694   71.2348   -3.2780 O.3     1  UNL1       -0.2858
     29 O          19.6722   71.9478   -5.0524 O.3     1  UNL1       -0.3226
     30 O          16.9174   71.1720   -2.0729 O.3     1  UNL1       -0.3794
     31 O          19.4242   72.5380   -1.4529 O.3     1  UNL1       -0.3775
     32 O          17.2430   69.3086   -4.2803 O.3     1  UNL1       -0.3792
     33 C          18.1301   70.9943   -2.8050 C.3     1  UNL1        0.1718
     34 C          18.9440   72.2880   -2.7688 C.3     1  UNL1        0.1968
     35 C          17.7638   70.6361   -4.2470 C.3     1  UNL1        0.1723
     36 C          20.1334   72.2131   -3.7271 C.3     1  UNL1        0.2706
     37 C          18.9810   70.7058   -5.1647 C.3     1  UNL1        0.1830
     38 H          17.1253   71.4005   -1.1532 H       1  UNL1        0.2105
     39 H          18.6748   72.5865   -0.8394 H       1  UNL1        0.2106
     40 H          16.4679   69.2507   -3.7002 H       1  UNL1        0.2106
     41 O          19.6198   70.9539   -7.4079 O.co2   1  UNL1       -0.5466
     42 O          17.4347   70.4471   -6.9987 O.co2   1  UNL1       -0.5466
     43 C          18.5655   70.6816   -6.5996 C.2     1  UNL1        0.0799
@<TRIPOS>UNITY_ATOM_ATTR
2 1
charge -1
26 1
charge -1
41 1
charge -1
@<TRIPOS>BOND
     1     1     4    1
     2     1    24    1
     3     1     2    1
     4     1     3    2
     5    25    28    1
     6    25    24    1
     7    25    26    1
     8    25    27    2
     9     6    11    1
    10     6    12    1
    11    29    36    1
    12    29    37    1
    13     7     9    1
    14     7    13    1
    15     8    10    1
    16     8    14    1
    17     4     5    1
    18    28    36    1
    19    30    33    1
    20    30    38    1
    21    31    34    1
    22    31    39    1
    23    32    35    1
    24    32    40    1
    25    41    43   ar
    26    15    19    2
    27    42    43   ar
    28    16    22    2
    29    17    12    1
    30    17    19   ar
    31    17    20   ar
    32    18    19   ar
    33    18    22   ar
    34    18    23    1
    35     9    10    1
    36     9    11    1
    37    10    12    1
    38    11     5    1
    39    33    34    1
    40    33    35    1
    41    34    36    1
    42    35    37    1
    43    37    43    1
    44    20    21   ar
    45    21    22   ar
@<TRIPOS>MOLECULE
*****
 43 45 0 0 0
SMALL
GASTEIGER

@<TRIPOS>ATOM
      1 P          22.2590   70.4659   -0.1099 P.3     1  UNL1        0.2189
      2 O          20.9425   69.8675   -0.8363 O.co2   1  UNL1       -0.4371
      3 O          23.4144   69.5138   -0.0081 O.2     1  UNL1       -0.5170
      4 O          21.6993   71.0443    1.2937 O.3     1  UNL1       -0.3112
      5 C          22.6311   71.3901    2.3021 C.3     1  UNL1        0.1811
      6 O          22.8560   72.8920    4.1652 O.3     1  UNL1       -0.3308
      7 O          19.8835   73.2489    3.9973 O.3     1  UNL1       -0.3794
      8 O          20.8236   75.4961    2.7715 O.3     1  UNL1       -0.3779
      9 C          20.8331   73.0709    2.9460 C.3     1  UNL1        0.1713
     10 C          21.6338   74.3396    2.7425 C.3     1  UNL1        0.1895
     11 C          21.8972   72.0974    3.4341 C.3     1  UNL1        0.1764
     12 C          22.6141   74.2832    3.9016 C.3     1  UNL1        0.2383
     13 H          19.1934   73.8672    3.7088 H       1  UNL1        0.2105
     14 H          20.2174   75.4852    2.0136 H       1  UNL1        0.2106
     15 O          24.3917   75.3182    5.8370 O.2     1  UNL1       -0.2464
     16 O          27.3723   76.7223    2.6138 O.2     1  UNL1       -0.2670
     17 N          23.8617   74.9243    3.5959 N.ar    1  UNL1       -0.2551
     18 N          25.8740   76.0174    4.2298 N.ar    1  UNL1       -0.2743
     19 C          24.6810   75.4095    4.6425 C.ar    1  UNL1        0.3323
     20 C          24.2629   75.0657    2.2730 C.ar    1  UNL1        0.0869
     21 C          25.4030   75.6473    1.8952 C.ar    1  UNL1        0.0795
     22 C          26.3158   76.1819    2.9269 C.ar    1  UNL1        0.2626
     23 H          26.4601   76.3649    4.9405 H       1  UNL1        0.1734
     24 O          22.5643   71.8068   -0.9595 O.3     1  UNL1       -0.2703
     25 P          22.7335   72.0399   -2.5503 P.3     1  UNL1        0.2208
     26 O          23.3605   70.6390   -3.0648 O.co2   1  UNL1       -0.4371
     27 O          23.5443   73.2504   -2.9126 O.2     1  UNL1       -0.5170
     28 O          21.2263   72.0470   -3.1255 O.3     1  UNL1       -0.2858
     29 O          19.6307   70.6031   -4.1146 O.3     1  UNL1       -0.3226
     30 O          19.6755   73.7588   -6.7806 O.3     1  UNL1       -0.3794
     31 O          22.1689   72.7410   -5.6486 O.3     1  UNL1       -0.3775
     32 O          17.4631   73.4518   -4.9201 O.3     1  UNL1       -0.3792
     33 C          19.7788   73.1309   -5.5027 C.3     1  UNL1        0.1718
     34 C          20.9054   72.0976   -5.5297 C.3     1  UNL1        0.1968
     35 C          18.4411   72.4520   -5.1999 C.3     1  UNL1        0.1723
     36 C          20.8975   71.2463   -4.2593 C.3     1  UNL1        0.2706
     37 C          18.5481   71.5232   -3.9939 C.3     1  UNL1        0.1830
     38 H          20.5143   74.1969   -6.9945 H       1  UNL1        0.2105
     39 H          22.1809   73.2832   -6.4525 H       1  UNL1        0.2106
     40 H          17.3853   74.0497   -5.6799 H       1  UNL1        0.2106
     41 O          17.6836   69.3579   -4.2495 O.co2   1  UNL1       -0.5466
     42 O          16.2352   70.9827   -3.5701 O.co2   1  UNL1       -0.5466
     43 C          17.3552   70.6280   -3.9062 C.2     1  UNL1        0.0799
@<TRIPOS>UNITY_ATOM_ATTR
2 1
charge -1
26 1
charge -1
41 1
charge -1
@<TRIPOS>BOND
     1     1     4    1
     2     1    24    1
     3     1     2    1
     4     1     3    2
     5    25    28    1
     6    25    24    1
     7    25    26    1
     8    25    27    2
     9     6    11    1
    10     6    12    1
    11    29    36    1
    12    29    37    1
    13     7     9    1
    14     7    13    1
    15     8    10    1
    16     8    14    1
    17     4     5    1
    18    28    36    1
    19    30    33    1
    20    30    38    1
    21    31    34    1
    22    31    39    1
    23    32    35    1
    24    32    40    1
    25    41    43   ar
    26    15    19    2
    27    42    43   ar
    28    16    22    2
    29    17    12    1
    30    17    19   ar
    31    17    20   ar
    32    18    19   ar
    33    18    22   ar
    34    18    23    1
    35     9    10    1
    36     9    11    1
    37    10    12    1
    38    11     5    1
    39    33    34    1
    40    33    35    1
    41    34    36    1
    42    35    37    1
    43    37    43    1
    44    20    21   ar
    45    21    22   ar
@<TRIPOS>MOLECULE
*****
 43 45 0 0 0
SMALL
GASTEIGER

@<TRIPOS>ATOM
      1 P          21.7741   70.9872   -1.1758 P.3     1  UNL1        0.2189
      2 O          23.3430   70.6322   -0.9990 O.co2   1  UNL1       -0.4371
      3 O          20.8268   69.9220   -0.7070 O.2     1  UNL1       -0.5170
      4 O          21.6439   71.4076   -2.7328 O.3     1  UNL1       -0.3112
      5 C          20.7583   70.6746   -3.5593 C.3     1  UNL1        0.1811
      6 O          18.9551   71.8546   -4.6240 O.3     1  UNL1       -0.3308
      7 O          17.2009   70.7523   -2.4562 O.3     1  UNL1       -0.3794
      8 O          16.6480   69.1109   -4.5624 O.3     1  UNL1       -0.3779
      9 C          18.3096   70.1436   -3.1185 C.3     1  UNL1        0.1713
     10 C          17.9183   69.7267   -4.5204 C.3     1  UNL1        0.1895
     11 C          19.3483   71.2243   -3.3857 C.3     1  UNL1        0.1764
     12 C          17.9510   71.0511   -5.2639 C.3     1  UNL1        0.2383
     13 H          16.5239   70.0812   -2.2749 H       1  UNL1        0.2105
     14 H          16.6792   68.2719   -4.0756 H       1  UNL1        0.2106
     15 O          16.0995   70.4163   -7.3000 O.2     1  UNL1       -0.2464
     16 O          19.3722   70.4708  -10.5451 O.2     1  UNL1       -0.2670
     17 N          18.2921   70.8935   -6.6494 N.ar    1  UNL1       -0.2551
     18 N          17.7314   70.4431   -8.9141 N.ar    1  UNL1       -0.2743
     19 C          17.2864   70.5739   -7.5920 C.ar    1  UNL1        0.3323
     20 C          19.6089   71.0567   -7.0624 C.ar    1  UNL1        0.0869
     21 C          20.0178   70.9288   -8.3262 C.ar    1  UNL1        0.0795
     22 C          19.0298   70.5952   -9.3731 C.ar    1  UNL1        0.2626
     23 H          17.0497   70.2188   -9.5881 H       1  UNL1        0.1734
     24 O          21.6327   72.4008   -0.4047 O.3     1  UNL1       -0.2703
     25 P          21.6138   72.7519    1.1733 P.3     1  UNL1        0.2208
     26 O          23.1072   73.3142    1.4450 O.co2   1  UNL1       -0.4371
     27 O          21.2153   71.6039    2.0548 O.2     1  UNL1       -0.5170
     28 O          20.6623   74.0492    1.2925 O.3     1  UNL1       -0.2858
     29 O          20.8563   74.5997    3.5878 O.3     1  UNL1       -0.3226
     30 O          18.7918   77.8601    2.1129 O.3     1  UNL1       -0.3794
     31 O          18.1117   75.1572    1.2377 O.3     1  UNL1       -0.3775
     32 O          21.6193   78.0891    2.7484 O.3     1  UNL1       -0.3792
     33 C          19.7182   76.7749    2.0674 C.3     1  UNL1        0.1718
     34 C          18.9799   75.4608    2.3234 C.3     1  UNL1        0.1968
     35 C          20.7759   77.0104    3.1480 C.3     1  UNL1        0.1723
     36 C          19.9659   74.3068    2.5104 C.3     1  UNL1        0.2706
     37 C          21.6388   75.7703    3.3627 C.3     1  UNL1        0.1830
     38 H          18.1100   77.7321    1.4347 H       1  UNL1        0.2105
     39 H          17.4836   75.8854    1.1132 H       1  UNL1        0.2106
     40 H          21.0823   78.8846    2.6084 H       1  UNL1        0.2106
     41 O          22.9315   74.6823    4.9895 O.co2   1  UNL1       -0.5466
     42 O          22.6192   76.9271    5.2393 O.co2   1  UNL1       -0.5466
     43 C          22.4346   75.8892    4.6216 C.2     1  UNL1        0.0799
@<TRIPOS>UNITY_ATOM_ATTR
2 1
charge -1
26 1
charge -1
41 1
charge -1
@<TRIPOS>BOND
     1     1     4    1
     2     1    24    1
     3     1     2    1
     4     1     3    2
     5    25    28    1
     6    25    24    1
     7    25    26    1
     8    25    27    2
     9     6    11    1
    10     6    12    1
    11    29    36    1
    12    29    37    1
    13     7     9    1
    14     7    13    1
    15     8    10    1
    16     8    14    1
    17     4     5    1
    18    28    36    1
    19    30    33    1
    20    30    38    1
    21    31    34    1
    22    31    39    1
    23    32    35    1
    24    32    40    1
    25    41    43   ar
    26    15    19    2
    27    42    43   ar
    28    16    22    2
    29    17    12    1
    30    17    19   ar
    31    17    20   ar
    32    18    19   ar
    33    18    22   ar
    34    18    23    1
    35     9    10    1
    36     9    11    1
    37    10    12    1
    38    11     5    1
    39    33    34    1
    40    33    35    1
    41    34    36    1
    42    35    37    1
    43    37    43    1
    44    20    21   ar
    45    21    22   ar
@<TRIPOS>MOLECULE
*****
 43 45 0 0 0
SMALL
GASTEIGER

@<TRIPOS>ATOM
      1 P          21.6914   70.3318   -0.9887 P.3     1  UNL1        0.2189
      2 O          23.1790   70.6919   -1.5143 O.co2   1  UNL1       -0.4371
      3 O          21.6437   69.5499    0.2913 O.2     1  UNL1       -0.5170
      4 O          20.9867   69.6321   -2.2661 O.3     1  UNL1       -0.3112
      5 C          20.7019   70.4284   -3.4015 C.3     1  UNL1        0.1811
      6 O          18.9939   71.7494   -4.4577 O.3     1  UNL1       -0.3308
      7 O          17.1308   70.6731   -2.3691 O.3     1  UNL1       -0.3794
      8 O          16.5322   69.1443   -4.5463 O.3     1  UNL1       -0.3779
      9 C          18.2174   70.0253   -3.0310 C.3     1  UNL1        0.1713
     10 C          17.8344   69.6832   -4.4553 C.3     1  UNL1        0.1895
     11 C          19.3222   71.0526   -3.2362 C.3     1  UNL1        0.1764
     12 C          17.9599   71.0296   -5.1477 C.3     1  UNL1        0.2383
     13 H          16.4124   70.0364   -2.2270 H       1  UNL1        0.2105
     14 H          16.5041   68.2878   -4.0909 H       1  UNL1        0.2106
     15 O          16.1433   70.4238   -7.2237 O.2     1  UNL1       -0.2464
     16 O          19.4630   70.5676  -10.4179 O.2     1  UNL1       -0.2670
     17 N          18.3226   70.9028   -6.5309 N.ar    1  UNL1       -0.2551
     18 N          17.7986   70.4950   -8.8124 N.ar    1  UNL1       -0.2743
     19 C          17.3333   70.5956   -7.4947 C.ar    1  UNL1        0.3323
     20 C          19.6441   71.0835   -6.9208 C.ar    1  UNL1        0.0869
     21 C          20.0725   70.9844   -8.1807 C.ar    1  UNL1        0.0795
     22 C          19.1025   70.6655   -9.2488 C.ar    1  UNL1        0.2626
     23 H          17.1285   70.2800   -9.5009 H       1  UNL1        0.1734
     24 O          20.9703   71.7769   -0.9222 O.3     1  UNL1       -0.2703
     25 P          21.5172   73.2141   -0.4230 P.3     1  UNL1        0.2208
     26 O          20.7577   74.2583   -1.3992 O.co2   1  UNL1       -0.4371
     27 O          23.0133   73.3392   -0.4278 O.2     1  UNL1       -0.5170
     28 O          20.8317   73.4339    1.0207 O.3     1  UNL1       -0.2858
     29 O          20.2778   75.3256    2.3336 O.3     1  UNL1       -0.3226
     30 O          21.6843   72.6988    5.1954 O.3     1  UNL1       -0.3794
     31 O          23.0524   72.9631    2.6278 O.3     1  UNL1       -0.3775
     32 O          18.8289   73.1750    4.9294 O.3     1  UNL1       -0.3792
     33 C          21.0407   73.0786    3.9790 C.3     1  UNL1        0.1718
     34 C          22.0292   73.8361    3.0920 C.3     1  UNL1        0.1968
     35 C          19.8501   73.9724    4.3330 C.3     1  UNL1        0.1723
     36 C          21.3194   74.4563    1.8877 C.3     1  UNL1        0.2706
     37 C          19.2763   74.6527    3.0934 C.3     1  UNL1        0.1830
     38 H          22.4444   72.1301    4.9953 H       1  UNL1        0.2105
     39 H          23.5068   72.5658    3.3868 H       1  UNL1        0.2106
     40 H          19.1812   72.7363    5.7195 H       1  UNL1        0.2106
     41 O          18.5509   76.1291    4.7655 O.co2   1  UNL1       -0.5466
     42 O          17.5171   76.2652    2.7377 O.co2   1  UNL1       -0.5466
     43 C          18.3472   75.7581    3.4772 C.2     1  UNL1        0.0799
@<TRIPOS>UNITY_ATOM_ATTR
2 1
charge -1
26 1
charge -1
41 1
charge -1
@<TRIPOS>BOND
     1     1     4    1
     2     1    24    1
     3     1     2    1
     4     1     3    2
     5    25    28    1
     6    25    24    1
     7    25    26    1
     8    25    27    2
     9     6    11    1
    10     6    12    1
    11    29    36    1
    12    29    37    1
    13     7     9    1
    14     7    13    1
    15     8    10    1
    16     8    14    1
    17     4     5    1
    18    28    36    1
    19    30    33    1
    20    30    38    1
    21    31    34    1
    22    31    39    1
    23    32    35    1
    24    32    40    1
    25    41    43   ar
    26    15    19    2
    27    42    43   ar
    28    16    22    2
    29    17    12    1
    30    17    19   ar
    31    17    20   ar
    32    18    19   ar
    33    18    22   ar
    34    18    23    1
    35     9    10    1
    36     9    11    1
    37    10    12    1
    38    11     5    1
    39    33    34    1
    40    33    35    1
    41    34    36    1
    42    35    37    1
    43    37    43    1
    44    20    21   ar
    45    21    22   ar
@<TRIPOS>MOLECULE
*****
 43 45 0 0 0
SMALL
GASTEIGER

@<TRIPOS>ATOM
      1 P          22.1928   70.4524   -0.1288 P.3     1  UNL1        0.2189
      2 O          20.8145   69.7826   -0.6490 O.co2   1  UNL1       -0.4371
      3 O          23.3534   69.5079   -0.0165 O.2     1  UNL1       -0.5170
      4 O          21.7664   71.2072    1.2375 O.3     1  UNL1       -0.3112
      5 C          22.7198   71.3094    2.2792 C.3     1  UNL1        0.1811
      6 O          22.9750   73.6042    2.9475 O.3     1  UNL1       -0.3308
      7 O          20.3679   73.2791    4.3928 O.3     1  UNL1       -0.3794
      8 O          19.6292   74.5911    2.1193 O.3     1  UNL1       -0.3779
      9 C          20.7877   72.7176    3.1490 C.3     1  UNL1        0.1713
     10 C          20.7821   73.7769    2.0673 C.3     1  UNL1        0.1895
     11 C          22.2691   72.3839    3.2604 C.3     1  UNL1        0.1764
     12 C          22.0557   74.5466    2.3730 C.3     1  UNL1        0.2383
     13 H          19.4243   73.5005    4.3459 H       1  UNL1        0.2105
     14 H          18.8456   74.0552    1.9174 H       1  UNL1        0.2106
     15 O          21.3634   77.0666    1.3022 O.2     1  UNL1       -0.2464
     16 O          24.3894   76.6358   -2.1477 O.2     1  UNL1       -0.2670
     17 N          22.6469   75.1173    1.1959 N.ar    1  UNL1       -0.2551
     18 N          22.8704   76.8492   -0.4156 N.ar    1  UNL1       -0.2743
     19 C          22.2277   76.3901    0.7416 C.ar    1  UNL1        0.3323
     20 C          23.6308   74.4196    0.5059 C.ar    1  UNL1        0.0869
     21 C          24.2344   74.8703   -0.5957 C.ar    1  UNL1        0.0795
     22 C          23.8537   76.1915   -1.1369 C.ar    1  UNL1        0.2626
     23 H          22.5938   77.7321   -0.7522 H       1  UNL1        0.1734
     24 O          22.4161   71.6736   -1.1640 O.3     1  UNL1       -0.2703
     25 P          22.5272   71.6911   -2.7768 P.3     1  UNL1        0.2208
     26 O          23.4927   70.4313   -3.0947 O.co2   1  UNL1       -0.4371
     27 O          23.0044   72.9953   -3.3471 O.2     1  UNL1       -0.5170
     28 O          21.0705   71.2279   -3.2924 O.3     1  UNL1       -0.2858
     29 O          19.6613   71.9477   -5.0545 O.3     1  UNL1       -0.3226
     30 O          16.9262   71.1537   -2.0617 O.3     1  UNL1       -0.3794
     31 O          19.4350   72.5200   -1.4507 O.3     1  UNL1       -0.3775
     32 O          17.2404   69.3015   -4.2802 O.3     1  UNL1       -0.3792
     33 C          18.1345   70.9811   -2.8022 C.3     1  UNL1        0.1718
     34 C          18.9469   72.2758   -2.7647 C.3     1  UNL1        0.1968
     35 C          17.7596   70.6295   -4.2437 C.3     1  UNL1        0.1723
     36 C          20.1304   72.2071   -3.7309 C.3     1  UNL1        0.2706
     37 C          18.9710   70.7053   -5.1686 C.3     1  UNL1        0.1830
     38 H          17.1395   71.3779   -1.1422 H       1  UNL1        0.2105
     39 H          18.6893   72.5645   -0.8323 H       1  UNL1        0.2106
     40 H          16.4690   69.2397   -3.6955 H       1  UNL1        0.2106
     41 O          19.6263   70.7249   -7.4206 O.co2   1  UNL1       -0.5466
     42 O          17.3888   70.6431   -6.9891 O.co2   1  UNL1       -0.5466
     43 C          18.5466   70.6875   -6.6010 C.2     1  UNL1        0.0799
@<TRIPOS>UNITY_ATOM_ATTR
2 1
charge -1
26 1
charge -1
41 1
charge -1
@<TRIPOS>BOND
     1     1     4    1
     2     1    24    1
     3     1     2    1
     4     1     3    2
     5    25    28    1
     6    25    24    1
     7    25    26    1
     8    25    27    2
     9     6    11    1
    10     6    12    1
    11    29    36    1
    12    29    37    1
    13     7     9    1
    14     7    13    1
    15     8    10    1
    16     8    14    1
    17     4     5    1
    18    28    36    1
    19    30    33    1
    20    30    38    1
    21    31    34    1
    22    31    39    1
    23    32    35    1
    24    32    40    1
    25    41    43   ar
    26    15    19    2
    27    42    43   ar
    28    16    22    2
    29    17    12    1
    30    17    19   ar
    31    17    20   ar
    32    18    19   ar
    33    18    22   ar
    34    18    23    1
    35     9    10    1
    36     9    11    1
    37    10    12    1
    38    11     5    1
    39    33    34    1
    40    33    35    1
    41    34    36    1
    42    35    37    1
    43    37    43    1
    44    20    21   ar
    45    21    22   ar
@<TRIPOS>MOLECULE
*****
 43 45 0 0 0
SMALL
GASTEIGER

@<TRIPOS>ATOM
      1 P          20.1533   70.3076   -2.6015 P.3     1  UNL1        0.2189
      2 O          19.9849   69.2389   -3.8051 O.co2   1  UNL1       -0.4371
      3 O          20.6488   69.7316   -1.3075 O.2     1  UNL1       -0.5170
      4 O          18.7165   71.0487   -2.5361 O.3     1  UNL1       -0.3112
      5 C          17.9858   71.2143   -3.7375 C.3     1  UNL1        0.1811
      6 O          18.6116   73.0081   -5.2101 O.3     1  UNL1       -0.3308
      7 O          16.2829   74.5113   -4.0661 O.3     1  UNL1       -0.3794
      8 O          15.3042   73.6213   -6.4507 O.3     1  UNL1       -0.3779
      9 C          16.4094   73.1167   -4.3445 C.3     1  UNL1        0.1713
     10 C          16.3307   72.8707   -5.8363 C.3     1  UNL1        0.1895
     11 C          17.8400   72.7024   -4.0283 C.3     1  UNL1        0.1764
     12 C          17.7166   73.2877   -6.2982 C.3     1  UNL1        0.2383
     13 H          15.3768   74.7993   -4.2606 H       1  UNL1        0.2105
     14 H          14.4421   73.3180   -6.1240 H       1  UNL1        0.2106
     15 O          18.7183   74.4870   -8.6508 O.2     1  UNL1       -0.2464
     16 O          19.3484   70.3991  -10.6846 O.2     1  UNL1       -0.2670
     17 N          18.1497   72.5604   -7.4577 N.ar    1  UNL1       -0.2551
     18 N          19.0303   72.4499   -9.6619 N.ar    1  UNL1       -0.2743
     19 C          18.6363   73.2589   -8.5879 C.ar    1  UNL1        0.3323
     20 C          18.0917   71.1721   -7.4673 C.ar    1  UNL1        0.0869
     21 C          18.4709   70.4146   -8.4984 C.ar    1  UNL1        0.0795
     22 C          18.9906   71.0661   -9.7186 C.ar    1  UNL1        0.2626
     23 H          19.3707   72.9136  -10.4609 H       1  UNL1        0.1734
     24 O          21.1143   71.4346   -3.2488 O.3     1  UNL1       -0.2703
     25 P          22.7085   71.6712   -3.1204 P.3     1  UNL1        0.2208
     26 O          23.0308   72.6875   -4.3385 O.co2   1  UNL1       -0.4371
     27 O          23.5216   70.4093   -3.1363 O.2     1  UNL1       -0.5170
     28 O          22.8838   72.5639   -1.7882 O.3     1  UNL1       -0.2858
     29 O          21.5702   72.7130    0.1768 O.3     1  UNL1       -0.3226
     30 O          22.9159   76.5976   -0.2315 O.3     1  UNL1       -0.3794
     31 O          22.0154   75.0893   -2.5657 O.3     1  UNL1       -0.3775
     32 O          24.0908   74.8494    1.7721 O.3     1  UNL1       -0.3792
     33 C          22.9848   75.1761   -0.3433 C.3     1  UNL1        0.1718
     34 C          21.8341   74.6751   -1.2165 C.3     1  UNL1        0.1968
     35 C          22.8807   74.5854    1.0646 C.3     1  UNL1        0.1723
     36 C          21.7380   73.1495   -1.1725 C.3     1  UNL1        0.2706
     37 C          22.6609   73.0760    1.0206 C.3     1  UNL1        0.1830
     38 H          22.9800   76.9951   -1.1143 H       1  UNL1        0.2105
     39 H          22.0775   76.0564   -2.6011 H       1  UNL1        0.2106
     40 H          24.2425   75.8068    1.8071 H       1  UNL1        0.2106
     41 O          21.1205   71.7996    2.2451 O.co2   1  UNL1       -0.5466
     42 O          22.8097   72.7919    3.4119 O.co2   1  UNL1       -0.5466
     43 C          22.2359   72.5627    2.3578 C.2     1  UNL1        0.0799
@<TRIPOS>UNITY_ATOM_ATTR
2 1
charge -1
26 1
charge -1
41 1
charge -1
@<TRIPOS>BOND
     1     1     4    1
     2     1    24    1
     3     1     2    1
     4     1     3    2
     5    25    28    1
     6    25    24    1
     7    25    26    1
     8    25    27    2
     9     6    11    1
    10     6    12    1
    11    29    36    1
    12    29    37    1
    13     7     9    1
    14     7    13    1
    15     8    10    1
    16     8    14    1
    17     4     5    1
    18    28    36    1
    19    30    33    1
    20    30    38    1
    21    31    34    1
    22    31    39    1
    23    32    35    1
    24    32    40    1
    25    41    43   ar
    26    15    19    2
    27    42    43   ar
    28    16    22    2
    29    17    12    1
    30    17    19   ar
    31    17    20   ar
    32    18    19   ar
    33    18    22   ar
    34    18    23    1
    35     9    10    1
    36     9    11    1
    37    10    12    1
    38    11     5    1
    39    33    34    1
    40    33    35    1
    41    34    36    1
    42    35    37    1
    43    37    43    1
    44    20    21   ar
    45    21    22   ar
@<TRIPOS>MOLECULE
*****
 43 45 0 0 0
SMALL
GASTEIGER

@<TRIPOS>ATOM
      1 P          22.3060   73.3413   -5.2694 P.3     1  UNL1        0.2189
      2 O          22.9076   74.6410   -6.0228 O.co2   1  UNL1       -0.4371
      3 O          23.3295   72.4486   -4.6313 O.2     1  UNL1       -0.5170
      4 O          21.3654   72.6451   -6.3869 O.3     1  UNL1       -0.3112
      5 C          20.8213   73.4553   -7.4126 C.3     1  UNL1        0.1811
      6 O          19.9996   71.2457   -7.8816 O.3     1  UNL1       -0.3308
      7 O          18.4800   72.4930  -10.1458 O.3     1  UNL1       -0.3794
      8 O          16.5635   72.2088   -8.2269 O.3     1  UNL1       -0.3779
      9 C          18.7683   73.0218   -8.8513 C.3     1  UNL1        0.1713
     10 C          17.9042   72.3489   -7.8059 C.3     1  UNL1        0.1895
     11 C          20.1644   72.5604   -8.4557 C.3     1  UNL1        0.1764
     12 C          18.6047   71.0123   -7.6304 C.3     1  UNL1        0.2383
     13 H          17.5927   72.7744  -10.4201 H       1  UNL1        0.2105
     14 H          16.1616   73.0870   -8.3238 H       1  UNL1        0.2106
     15 O          16.2654   69.7478   -6.6791 O.2     1  UNL1       -0.2464
     16 O          18.1280   69.0199   -2.5264 O.2     1  UNL1       -0.2670
     17 N          18.4512   70.4831   -6.3048 N.ar    1  UNL1       -0.2551
     18 N          17.1949   69.3874   -4.6114 N.ar    1  UNL1       -0.2743
     19 C          17.2346   69.8671   -5.9273 C.ar    1  UNL1        0.3323
     20 C          19.4981   70.5752   -5.3957 C.ar    1  UNL1        0.0869
     21 C          19.4454   70.1132   -4.1448 C.ar    1  UNL1        0.0795
     22 C          18.2096   69.4564   -3.6706 C.ar    1  UNL1        0.2626
     23 H          16.3574   68.9563   -4.3249 H       1  UNL1        0.1734
     24 O          21.2356   73.9811   -4.2409 O.3     1  UNL1       -0.2703
     25 P          21.4047   74.4983   -2.7186 P.3     1  UNL1        0.2208
     26 O          19.9583   75.1439   -2.3845 O.co2   1  UNL1       -0.4371
     27 O          22.5616   75.4321   -2.5104 O.2     1  UNL1       -0.5170
     28 O          21.4637   73.1513   -1.8328 O.3     1  UNL1       -0.2858
     29 O          23.1317   73.3708   -0.1659 O.3     1  UNL1       -0.3226
     30 O          21.8155   69.5061    0.4659 O.3     1  UNL1       -0.3794
     31 O          22.2207   70.5074   -2.2485 O.3     1  UNL1       -0.3775
     32 O          21.0087   71.6360    2.2724 O.3     1  UNL1       -0.3792
     33 C          21.6963   70.8784    0.0911 C.3     1  UNL1        0.1718
     34 C          22.6479   71.1769   -1.0678 C.3     1  UNL1        0.1968
     35 C          22.0552   71.7339    1.3082 C.3     1  UNL1        0.1723
     36 C          22.7182   72.6792   -1.3449 C.3     1  UNL1        0.2706
     37 C          22.2305   73.2008    0.9259 C.3     1  UNL1        0.1830
     38 H          21.5922   68.9432   -0.2921 H       1  UNL1        0.2105
     39 H          22.1735   69.5536   -2.0797 H       1  UNL1        0.2106
     40 H          20.8868   70.7072    2.5241 H       1  UNL1        0.2106
     41 O          23.7592   74.8751    1.5269 O.co2   1  UNL1       -0.5466
     42 O          22.6853   73.7904    3.2209 O.co2   1  UNL1       -0.5466
     43 C          22.8924   73.9609    2.0288 C.2     1  UNL1        0.0799
@<TRIPOS>UNITY_ATOM_ATTR
2 1
charge -1
26 1
charge -1
41 1
charge -1
@<TRIPOS>BOND
     1     1     4    1
     2     1    24    1
     3     1     2    1
     4     1     3    2
     5    25    28    1
     6    25    24    1
     7    25    26    1
     8    25    27    2
     9     6    11    1
    10     6    12    1
    11    29    36    1
    12    29    37    1
    13     7     9    1
    14     7    13    1
    15     8    10    1
    16     8    14    1
    17     4     5    1
    18    28    36    1
    19    30    33    1
    20    30    38    1
    21    31    34    1
    22    31    39    1
    23    32    35    1
    24    32    40    1
    25    41    43   ar
    26    15    19    2
    27    42    43   ar
    28    16    22    2
    29    17    12    1
    30    17    19   ar
    31    17    20   ar
    32    18    19   ar
    33    18    22   ar
    34    18    23    1
    35     9    10    1
    36     9    11    1
    37    10    12    1
    38    11     5    1
    39    33    34    1
    40    33    35    1
    41    34    36    1
    42    35    37    1
    43    37    43    1
    44    20    21   ar
    45    21    22   ar
@<TRIPOS>MOLECULE
*****
 43 45 0 0 0
SMALL
GASTEIGER

@<TRIPOS>ATOM
      1 P          20.3327   75.2993   -6.1728 P.3     1  UNL1        0.2189
      2 O          19.3657   76.2146   -7.0927 O.co2   1  UNL1       -0.4371
      3 O          21.7790   75.6991   -6.1809 O.2     1  UNL1       -0.5170
      4 O          20.0184   73.7892   -6.6614 O.3     1  UNL1       -0.3112
      5 C          20.9193   73.1679   -7.5597 C.3     1  UNL1        0.1811
      6 O          19.9072   71.0258   -7.9653 O.3     1  UNL1       -0.3308
      7 O          18.3313   72.3868  -10.1230 O.3     1  UNL1       -0.3794
      8 O          16.5355   72.2396   -8.0762 O.3     1  UNL1       -0.3779
      9 C          18.7460   72.8899   -8.8528 C.3     1  UNL1        0.1713
     10 C          17.9087   72.2798   -7.7487 C.3     1  UNL1        0.1895
     11 C          20.1282   72.3263   -8.5528 C.3     1  UNL1        0.1764
     12 C          18.5195   70.8950   -7.6182 C.3     1  UNL1        0.2383
     13 H          17.4503   72.7333  -10.3364 H       1  UNL1        0.2105
     14 H          16.1935   73.1451   -8.1476 H       1  UNL1        0.2106
     15 O          16.2011   69.6891   -6.5469 O.2     1  UNL1       -0.2464
     16 O          18.2476   68.9366   -2.4861 O.2     1  UNL1       -0.2670
     17 N          18.4189   70.3752   -6.2838 N.ar    1  UNL1       -0.2551
     18 N          17.2223   69.3164   -4.5251 N.ar    1  UNL1       -0.2743
     19 C          17.2085   69.7892   -5.8439 C.ar    1  UNL1        0.3323
     20 C          19.5108   70.4471   -5.4274 C.ar    1  UNL1        0.0869
     21 C          19.5089   69.9919   -4.1729 C.ar    1  UNL1        0.0795
     22 C          18.2831   69.3660   -3.6353 C.ar    1  UNL1        0.2626
     23 H          16.3902   68.9060   -4.1956 H       1  UNL1        0.1734
     24 O          19.6235   75.3668   -4.7218 O.3     1  UNL1       -0.2703
     25 P          19.2985   74.2063   -3.6443 P.3     1  UNL1        0.2208
     26 O          18.1012   73.3739   -4.3470 O.co2   1  UNL1       -0.4371
     27 O          18.9739   74.7156   -2.2698 O.2     1  UNL1       -0.5170
     28 O          20.5730   73.2193   -3.7088 O.3     1  UNL1       -0.2858
     29 O          21.5545   73.4188   -1.5626 O.3     1  UNL1       -0.3226
     30 O          23.8272   70.4096   -3.2500 O.3     1  UNL1       -0.3794
     31 O          23.0816   72.7589   -4.8182 O.3     1  UNL1       -0.3775
     32 O          21.7984   69.7697   -1.2687 O.3     1  UNL1       -0.3792
     33 C          22.6480   71.1824   -3.0258 C.3     1  UNL1        0.1718
     34 C          22.9096   72.6387   -3.4109 C.3     1  UNL1        0.1968
     35 C          22.2908   71.0803   -1.5413 C.3     1  UNL1        0.1723
     36 C          21.7524   73.5370   -2.9720 C.3     1  UNL1        0.2706
     37 C          21.2179   72.0944   -1.1554 C.3     1  UNL1        0.1830
     38 H          24.0734   70.4595   -4.1871 H       1  UNL1        0.2105
     39 H          23.8142   72.1912   -5.1037 H       1  UNL1        0.2106
     40 H          22.4718   69.1146   -1.5100 H       1  UNL1        0.2106
     41 O          20.8233   73.4926    0.6860 O.co2   1  UNL1       -0.5466
     42 O          21.2638   71.2983    1.1217 O.co2   1  UNL1       -0.5466
     43 C          21.1131   72.2166    0.3300 C.2     1  UNL1        0.0799
@<TRIPOS>UNITY_ATOM_ATTR
2 1
charge -1
26 1
charge -1
41 1
charge -1
@<TRIPOS>BOND
     1     1     4    1
     2     1    24    1
     3     1     2    1
     4     1     3    2
     5    25    28    1
     6    25    24    1
     7    25    26    1
     8    25    27    2
     9     6    11    1
    10     6    12    1
    11    29    36    1
    12    29    37    1
    13     7     9    1
    14     7    13    1
    15     8    10    1
    16     8    14    1
    17     4     5    1
    18    28    36    1
    19    30    33    1
    20    30    38    1
    21    31    34    1
    22    31    39    1
    23    32    35    1
    24    32    40    1
    25    41    43   ar
    26    15    19    2
    27    42    43   ar
    28    16    22    2
    29    17    12    1
    30    17    19   ar
    31    17    20   ar
    32    18    19   ar
    33    18    22   ar
    34    18    23    1
    35     9    10    1
    36     9    11    1
    37    10    12    1
    38    11     5    1
    39    33    34    1
    40    33    35    1
    41    34    36    1
    42    35    37    1
    43    37    43    1
    44    20    21   ar
    45    21    22   ar
@<TRIPOS>MOLECULE
*****
 43 45 0 0 0
SMALL
GASTEIGER

@<TRIPOS>ATOM
      1 P          23.0042   72.4494   -3.6026 P.3     1  UNL1        0.2189
      2 O          23.2368   70.9186   -3.1321 O.co2   1  UNL1       -0.4371
      3 O          24.2422   73.1698   -4.0500 O.2     1  UNL1       -0.5170
      4 O          22.2100   73.1204   -2.3629 O.3     1  UNL1       -0.3112
      5 C          22.2914   72.5004   -1.0927 C.3     1  UNL1        0.1811
      6 O          21.1860   72.4809    1.0416 O.3     1  UNL1       -0.3308
      7 O          18.9597   73.9700   -0.3065 O.3     1  UNL1       -0.3794
      8 O          20.2903   75.9523    1.0111 O.3     1  UNL1       -0.3779
      9 C          20.3684   74.0642   -0.5190 C.3     1  UNL1        0.1713
     10 C          21.0226   74.8077    0.6262 C.3     1  UNL1        0.1895
     11 C          20.9599   72.6689   -0.3722 C.3     1  UNL1        0.1764
     12 C          21.0602   73.7453    1.7114 C.3     1  UNL1        0.2383
     13 H          18.5595   74.8496   -0.3952 H       1  UNL1        0.2105
     14 H          20.2962   76.5985    0.2869 H       1  UNL1        0.2106
     15 O          23.5938   74.7246    0.9377 O.2     1  UNL1       -0.2464
     16 O          25.2507   74.3477    5.2221 O.2     1  UNL1       -0.2670
     17 N          22.1717   73.9133    2.6044 N.ar    1  UNL1       -0.2551
     18 N          24.4169   74.5350    3.0721 N.ar    1  UNL1       -0.2743
     19 C          23.4016   74.4127    2.1144 C.ar    1  UNL1        0.3323
     20 C          22.0372   73.5866    3.9483 C.ar    1  UNL1        0.0869
     21 C          23.0140   73.7087    4.8492 C.ar    1  UNL1        0.0795
     22 C          24.3310   74.2226    4.4192 C.ar    1  UNL1        0.2626
     23 H          25.2830   74.8788    2.7543 H       1  UNL1        0.1734
     24 O          21.8593   72.3108   -4.7353 O.3     1  UNL1       -0.2703
     25 P          21.5229   73.2295   -6.0224 P.3     1  UNL1        0.2208
     26 O          22.5941   72.7258   -7.1265 O.co2   1  UNL1       -0.4371
     27 O          21.5612   74.7058   -5.7521 O.2     1  UNL1       -0.5170
     28 O          20.1016   72.6831   -6.5550 O.3     1  UNL1       -0.2858
     29 O          18.0422   73.7924   -6.9258 O.3     1  UNL1       -0.3226
     30 O          16.7756   70.0664   -5.6686 O.3     1  UNL1       -0.3794
     31 O          19.0144   71.3946   -4.3427 O.3     1  UNL1       -0.3775
     32 O          16.6326   70.7836   -8.4821 O.3     1  UNL1       -0.3792
     33 C          17.6468   70.9996   -6.3073 C.3     1  UNL1        0.1718
     34 C          18.1462   72.0180   -5.2821 C.3     1  UNL1        0.1968
     35 C          16.8575   71.7021   -7.4144 C.3     1  UNL1        0.1723
     36 C          18.8935   73.1628   -5.9675 C.3     1  UNL1        0.2706
     37 C          17.6165   72.9082   -7.9602 C.3     1  UNL1        0.1830
     38 H          17.2555   69.6077   -4.9610 H       1  UNL1        0.2105
     39 H          18.5468   70.6670   -3.9043 H       1  UNL1        0.2106
     40 H          16.1504   70.0111   -8.1480 H       1  UNL1        0.2106
     41 O          15.4241   73.3980   -8.6349 O.co2   1  UNL1       -0.5466
     42 O          17.0927   74.6839   -9.5074 O.co2   1  UNL1       -0.5466
     43 C          16.7194   73.7688   -8.7890 C.2     1  UNL1        0.0799
@<TRIPOS>UNITY_ATOM_ATTR
2 1
charge -1
26 1
charge -1
41 1
charge -1
@<TRIPOS>BOND
     1     1     4    1
     2     1    24    1
     3     1     2    1
     4     1     3    2
     5    25    28    1
     6    25    24    1
     7    25    26    1
     8    25    27    2
     9     6    11    1
    10     6    12    1
    11    29    36    1
    12    29    37    1
    13     7     9    1
    14     7    13    1
    15     8    10    1
    16     8    14    1
    17     4     5    1
    18    28    36    1
    19    30    33    1
    20    30    38    1
    21    31    34    1
    22    31    39    1
    23    32    35    1
    24    32    40    1
    25    41    43   ar
    26    15    19    2
    27    42    43   ar
    28    16    22    2
    29    17    12    1
    30    17    19   ar
    31    17    20   ar
    32    18    19   ar
    33    18    22   ar
    34    18    23    1
    35     9    10    1
    36     9    11    1
    37    10    12    1
    38    11     5    1
    39    33    34    1
    40    33    35    1
    41    34    36    1
    42    35    37    1
    43    37    43    1
    44    20    21   ar
    45    21    22   ar
@<TRIPOS>MOLECULE
*****
 43 45 0 0 0
SMALL
GASTEIGER

@<TRIPOS>ATOM
      1 P          19.5224   72.5111   -3.0476 P.3     1  UNL1        0.2189
      2 O          20.1173   71.1152   -3.6102 O.co2   1  UNL1       -0.4371
      3 O          20.2424   73.7414   -3.5164 O.2     1  UNL1       -0.5170
      4 O          19.4721   72.2942   -1.4450 O.3     1  UNL1       -0.3112
      5 C          20.3183   73.0832   -0.6290 C.3     1  UNL1        0.1811
      6 O          22.5601   73.2347    0.2248 O.3     1  UNL1       -0.3308
      7 O          23.1010   70.6893   -1.2650 O.3     1  UNL1       -0.3794
      8 O          22.7647   69.8198    1.2976 O.3     1  UNL1       -0.3779
      9 C          21.9161   71.1039   -0.5848 C.3     1  UNL1        0.1713
     10 C          22.1128   71.0123    0.9136 C.3     1  UNL1        0.1895
     11 C          21.7546   72.6033   -0.7939 C.3     1  UNL1        0.1764
     12 C          22.9443   72.2513    1.1988 C.3     1  UNL1        0.2383
     13 H          23.2253   69.7343   -1.1457 H       1  UNL1        0.2105
     14 H          22.1950   69.0605    1.0958 H       1  UNL1        0.2106
     15 O          20.5718   71.8488    2.6771 O.2     1  UNL1       -0.2464
     16 O          22.1502   74.3227    6.2314 O.2     1  UNL1       -0.2670
     17 N          22.7087   72.7789    2.5130 N.ar    1  UNL1       -0.2551
     18 N          21.3598   73.0822    4.4455 N.ar    1  UNL1       -0.2743
     19 C          21.4823   72.5183    3.1688 C.ar    1  UNL1        0.3323
     20 C          23.6861   73.5428    3.1392 C.ar    1  UNL1        0.0869
     21 C          23.5548   74.0735    4.3565 C.ar    1  UNL1        0.0795
     22 C          22.3033   73.8494    5.1094 C.ar    1  UNL1        0.2626
     23 H          20.5138   72.9162    4.9210 H       1  UNL1        0.1734
     24 O          17.9646   72.4393   -3.4731 O.3     1  UNL1       -0.2703
     25 P          17.1410   71.3220   -4.3019 P.3     1  UNL1        0.2208
     26 O          15.7411   72.0642   -4.6328 O.co2   1  UNL1       -0.4371
     27 O          16.9917   70.0105   -3.5866 O.2     1  UNL1       -0.5170
     28 O          17.8975   71.2269   -5.7236 O.3     1  UNL1       -0.2858
     29 O          19.0856   73.0812   -6.5947 O.3     1  UNL1       -0.3226
     30 O          18.5269   70.7764   -9.9776 O.3     1  UNL1       -0.3794
     31 O          16.3649   71.1140   -8.0419 O.3     1  UNL1       -0.3775
     32 O          21.1298   70.8656   -8.6863 O.3     1  UNL1       -0.3792
     33 C          18.7276   71.0202   -8.5854 C.3     1  UNL1        0.1718
     34 C          17.5741   71.8640   -8.0421 C.3     1  UNL1        0.1968
     35 C          20.0546   71.7648   -8.4222 C.3     1  UNL1        0.1723
     36 C          17.8665   72.3379   -6.6177 C.3     1  UNL1        0.2706
     37 C          20.2146   72.3145   -7.0077 C.3     1  UNL1        0.1830
     38 H          17.6892   70.3040  -10.1058 H       1  UNL1        0.2105
     39 H          16.1735   70.8099   -8.9426 H       1  UNL1        0.2106
     40 H          21.0397   70.5084   -9.5836 H       1  UNL1        0.2106
     41 O          22.5066   72.6830   -6.6718 O.co2   1  UNL1       -0.5466
     42 O          21.2145   74.5074   -7.1208 O.co2   1  UNL1       -0.5466
     43 C          21.3326   73.3038   -6.9464 C.2     1  UNL1        0.0799
@<TRIPOS>UNITY_ATOM_ATTR
2 1
charge -1
26 1
charge -1
41 1
charge -1
@<TRIPOS>BOND
     1     1     4    1
     2     1    24    1
     3     1     2    1
     4     1     3    2
     5    25    28    1
     6    25    24    1
     7    25    26    1
     8    25    27    2
     9     6    11    1
    10     6    12    1
    11    29    36    1
    12    29    37    1
    13     7     9    1
    14     7    13    1
    15     8    10    1
    16     8    14    1
    17     4     5    1
    18    28    36    1
    19    30    33    1
    20    30    38    1
    21    31    34    1
    22    31    39    1
    23    32    35    1
    24    32    40    1
    25    41    43   ar
    26    15    19    2
    27    42    43   ar
    28    16    22    2
    29    17    12    1
    30    17    19   ar
    31    17    20   ar
    32    18    19   ar
    33    18    22   ar
    34    18    23    1
    35     9    10    1
    36     9    11    1
    37    10    12    1
    38    11     5    1
    39    33    34    1
    40    33    35    1
    41    34    36    1
    42    35    37    1
    43    37    43    1
    44    20    21   ar
    45    21    22   ar
@<TRIPOS>MOLECULE
*****
 43 45 0 0 0
SMALL
GASTEIGER

@<TRIPOS>ATOM
      1 P          23.0371   72.4750   -3.6481 P.3     1  UNL1        0.2189
      2 O          23.2764   70.9343   -3.2147 O.co2   1  UNL1       -0.4371
      3 O          24.2794   73.2272   -4.0258 O.2     1  UNL1       -0.5170
      4 O          22.1855   73.0961   -2.4205 O.3     1  UNL1       -0.3112
      5 C          22.2197   72.4328   -1.1701 C.3     1  UNL1        0.1811
      6 O          21.0874   72.4456    0.9501 O.3     1  UNL1       -0.3308
      7 O          18.9058   73.9673   -0.4343 O.3     1  UNL1       -0.3794
      8 O          20.2557   75.9325    0.8892 O.3     1  UNL1       -0.3779
      9 C          20.3186   74.0346   -0.6294 C.3     1  UNL1        0.1713
     10 C          20.9718   74.7726    0.5199 C.3     1  UNL1        0.1895
     11 C          20.8826   72.6296   -0.4675 C.3     1  UNL1        0.1764
     12 C          20.9763   73.7159    1.6114 C.3     1  UNL1        0.2383
     13 H          18.5228   74.8535   -0.5329 H       1  UNL1        0.2105
     14 H          20.2825   76.5744    0.1617 H       1  UNL1        0.2106
     15 O          23.5136   74.7181    0.8804 O.2     1  UNL1       -0.2464
     16 O          25.1338   74.2581    5.1707 O.2     1  UNL1       -0.2670
     17 N          22.0794   73.8686    2.5174 N.ar    1  UNL1       -0.2551
     18 N          24.3184   74.4871    3.0177 N.ar    1  UNL1       -0.2743
     19 C          23.3120   74.3816    2.0487 C.ar    1  UNL1        0.3323
     20 C          21.9340   73.5141    3.8531 C.ar    1  UNL1        0.0869
     21 C          22.9025   73.6205    4.7650 C.ar    1  UNL1        0.0795
     22 C          24.2216   74.1468    4.3572 C.ar    1  UNL1        0.2626
     23 H          25.1863   74.8398    2.7147 H       1  UNL1        0.1734
     24 O          21.9386   72.3537   -4.8277 O.3     1  UNL1       -0.2703
     25 P          21.6452   73.2986   -6.1062 P.3     1  UNL1        0.2208
     26 O          22.7774   72.8436   -7.1700 O.co2   1  UNL1       -0.4371
     27 O          21.6413   74.7679   -5.7980 O.2     1  UNL1       -0.5170
     28 O          20.2619   72.7395   -6.7197 O.3     1  UNL1       -0.2858
     29 O          18.7550   71.1861   -5.7577 O.3     1  UNL1       -0.3226
     30 O          18.1971   70.5089   -9.7948 O.3     1  UNL1       -0.3794
     31 O          20.8832   70.9065   -8.7173 O.3     1  UNL1       -0.3775
     32 O          16.2147   71.9984   -8.2774 O.3     1  UNL1       -0.3792
     33 C          18.4881   71.2833   -8.6313 C.3     1  UNL1        0.1718
     34 C          19.7168   70.7071   -7.9272 C.3     1  UNL1        0.1968
     35 C          17.2693   71.2253   -7.7076 C.3     1  UNL1        0.1723
     36 C          19.9223   71.3632   -6.5611 C.3     1  UNL1        0.2706
     37 C          17.5913   71.7840   -6.3246 C.3     1  UNL1        0.1830
     38 H          18.9577   70.5310  -10.3967 H       1  UNL1        0.2105
     39 H          20.7596   70.4930   -9.5856 H       1  UNL1        0.2106
     40 H          16.0001   71.6532   -9.1581 H       1  UNL1        0.2106
     41 O          15.5384   72.3629   -5.3489 O.co2   1  UNL1       -0.5466
     42 O          16.5199   70.4313   -4.6384 O.co2   1  UNL1       -0.5466
     43 C          16.5202   71.4275   -5.3459 C.2     1  UNL1        0.0799
@<TRIPOS>UNITY_ATOM_ATTR
2 1
charge -1
26 1
charge -1
41 1
charge -1
@<TRIPOS>BOND
     1     1     4    1
     2     1    24    1
     3     1     2    1
     4     1     3    2
     5    25    28    1
     6    25    24    1
     7    25    26    1
     8    25    27    2
     9     6    11    1
    10     6    12    1
    11    29    36    1
    12    29    37    1
    13     7     9    1
    14     7    13    1
    15     8    10    1
    16     8    14    1
    17     4     5    1
    18    28    36    1
    19    30    33    1
    20    30    38    1
    21    31    34    1
    22    31    39    1
    23    32    35    1
    24    32    40    1
    25    41    43   ar
    26    15    19    2
    27    42    43   ar
    28    16    22    2
    29    17    12    1
    30    17    19   ar
    31    17    20   ar
    32    18    19   ar
    33    18    22   ar
    34    18    23    1
    35     9    10    1
    36     9    11    1
    37    10    12    1
    38    11     5    1
    39    33    34    1
    40    33    35    1
    41    34    36    1
    42    35    37    1
    43    37    43    1
    44    20    21   ar
    45    21    22   ar
@<TRIPOS>MOLECULE
*****
 43 45 0 0 0
SMALL
GASTEIGER

@<TRIPOS>ATOM
      1 P          21.5480   73.1682   -6.2860 P.3     1  UNL1        0.2189
      2 O          20.8804   74.5946   -6.6582 O.co2   1  UNL1       -0.4371
      3 O          22.8687   72.8957   -6.9444 O.2     1  UNL1       -0.5170
      4 O          20.3748   72.0977   -6.5948 O.3     1  UNL1       -0.3112
      5 C          19.0322   72.5470   -6.5938 C.3     1  UNL1        0.1811
      6 O          16.9399   72.0181   -7.6523 O.3     1  UNL1       -0.3308
      7 O          18.3723   72.4082  -10.2577 O.3     1  UNL1       -0.3794
      8 O          17.0110   74.7533   -9.9692 O.3     1  UNL1       -0.3779
      9 C          18.5330   73.1093   -9.0243 C.3     1  UNL1        0.1713
     10 C          17.3661   74.0473   -8.7987 C.3     1  UNL1        0.1895
     11 C          18.3615   72.1088   -7.8894 C.3     1  UNL1        0.1764
     12 C          16.2779   73.0921   -8.3391 C.3     1  UNL1        0.2383
     13 H          18.4776   73.0269  -10.9978 H       1  UNL1        0.2105
     14 H          17.7358   75.3477  -10.2207 H       1  UNL1        0.2106
     15 O          13.9693   74.4955   -9.1622 O.2     1  UNL1       -0.2464
     16 O          12.7703   75.4400   -4.8132 O.2     1  UNL1       -0.2670
     17 N          15.3451   73.7146   -7.4429 N.ar    1  UNL1       -0.2551
     18 N          13.3749   74.9654   -6.9954 N.ar    1  UNL1       -0.2743
     19 C          14.2171   74.3954   -7.9591 C.ar    1  UNL1        0.3323
     20 C          15.5506   73.6461   -6.0703 C.ar    1  UNL1        0.0869
     21 C          14.7389   74.1944   -5.1640 C.ar    1  UNL1        0.0795
     22 C          13.5379   74.9244   -5.6202 C.ar    1  UNL1        0.2626
     23 H          12.5840   75.4464   -7.3309 H       1  UNL1        0.1734
     24 O          21.5949   73.2000   -4.6705 O.3     1  UNL1       -0.2703
     25 P          22.6031   72.4919   -3.6237 P.3     1  UNL1        0.2208
     26 O          24.0205   73.2106   -3.9315 O.co2   1  UNL1       -0.4371
     27 O          22.6360   70.9939   -3.7177 O.2     1  UNL1       -0.5170
     28 O          22.1620   73.0626   -2.1807 O.3     1  UNL1       -0.2858
     29 O          21.4045   71.3299   -0.7549 O.3     1  UNL1       -0.3226
     30 O          20.6304   74.6900    1.5208 O.3     1  UNL1       -0.3794
     31 O          20.0577   74.6774   -1.3439 O.3     1  UNL1       -0.3775
     32 O          22.9006   72.9888    2.1557 O.3     1  UNL1       -0.3792
     33 C          21.3351   73.8971    0.5654 C.3     1  UNL1        0.1718
     34 C          20.3963   73.5242   -0.5823 C.3     1  UNL1        0.1968
     35 C          21.8360   72.6367    1.2742 C.3     1  UNL1        0.1723
     36 C          21.0437   72.4905   -1.5048 C.3     1  UNL1        0.2706
     37 C          22.3506   71.6035    0.2762 C.3     1  UNL1        0.1830
     38 H          20.3026   75.4967    1.0929 H       1  UNL1        0.2105
     39 H          19.6466   75.3376   -0.7647 H       1  UNL1        0.2106
     40 H          22.5863   73.6461    2.7961 H       1  UNL1        0.2106
     41 O          21.6538   69.3686    0.4214 O.co2   1  UNL1       -0.5466
     42 O          23.3404   70.0244    1.8085 O.co2   1  UNL1       -0.5466
     43 C          22.5254   70.2728    0.9327 C.2     1  UNL1        0.0799
@<TRIPOS>UNITY_ATOM_ATTR
2 1
charge -1
26 1
charge -1
41 1
charge -1
@<TRIPOS>BOND
     1     1     4    1
     2     1    24    1
     3     1     2    1
     4     1     3    2
     5    25    28    1
     6    25    24    1
     7    25    26    1
     8    25    27    2
     9     6    11    1
    10     6    12    1
    11    29    36    1
    12    29    37    1
    13     7     9    1
    14     7    13    1
    15     8    10    1
    16     8    14    1
    17     4     5    1
    18    28    36    1
    19    30    33    1
    20    30    38    1
    21    31    34    1
    22    31    39    1
    23    32    35    1
    24    32    40    1
    25    41    43   ar
    26    15    19    2
    27    42    43   ar
    28    16    22    2
    29    17    12    1
    30    17    19   ar
    31    17    20   ar
    32    18    19   ar
    33    18    22   ar
    34    18    23    1
    35     9    10    1
    36     9    11    1
    37    10    12    1
    38    11     5    1
    39    33    34    1
    40    33    35    1
    41    34    36    1
    42    35    37    1
    43    37    43    1
    44    20    21   ar
    45    21    22   ar
@<TRIPOS>MOLECULE
*****
 43 45 0 0 0
SMALL
GASTEIGER

@<TRIPOS>ATOM
      1 P          21.5600   71.0241   -3.1138 P.3     1  UNL1        0.2189
      2 O          23.0829   71.4432   -3.4659 O.co2   1  UNL1       -0.4371
      3 O          21.2678   69.5556   -3.2138 O.2     1  UNL1       -0.5170
      4 O          20.6643   71.9847   -4.0587 O.3     1  UNL1       -0.3112
      5 C          19.8477   71.3877   -5.0493 C.3     1  UNL1        0.1811
      6 O          17.6159   72.2801   -5.0651 O.3     1  UNL1       -0.3308
      7 O          16.7500   69.6351   -3.9489 O.3     1  UNL1       -0.3794
      8 O          16.0957   69.4116   -6.5867 O.3     1  UNL1       -0.3779
      9 C          17.7733   69.9222   -4.9023 C.3     1  UNL1        0.1713
     10 C          17.1589   70.2743   -6.2405 C.3     1  UNL1        0.1895
     11 C          18.4351   71.2333   -4.5007 C.3     1  UNL1        0.1764
     12 C          16.7006   71.7043   -6.0107 C.3     1  UNL1        0.2383
     13 H          16.3126   68.8015   -4.1846 H       1  UNL1        0.2105
     14 H          16.4388   68.5140   -6.7226 H       1  UNL1        0.2106
     15 O          18.6593   71.4721   -8.0320 O.2     1  UNL1       -0.2464
     16 O          16.6747   74.7553  -10.5865 O.2     1  UNL1       -0.2670
     17 N          16.7198   72.4861   -7.2145 N.ar    1  UNL1       -0.2551
     18 N          17.6696   73.1082   -9.3019 N.ar    1  UNL1       -0.2743
     19 C          17.7486   72.2915   -8.1662 C.ar    1  UNL1        0.3323
     20 C          15.7271   73.4312   -7.4437 C.ar    1  UNL1        0.0869
     21 C          15.6650   74.2022   -8.5311 C.ar    1  UNL1        0.0795
     22 C          16.7024   74.0623   -9.5740 C.ar    1  UNL1        0.2626
     23 H          18.3761   72.9924   -9.9778 H       1  UNL1        0.1734
     24 O          21.3410   71.6556   -1.6420 O.3     1  UNL1       -0.2703
     25 P          21.7037   71.0802   -0.1754 P.3     1  UNL1        0.2208
     26 O          23.2915   71.3682   -0.0475 O.co2   1  UNL1       -0.4371
     27 O          21.3165   69.6452    0.0362 O.2     1  UNL1       -0.5170
     28 O          21.0177   72.1173    0.8523 O.3     1  UNL1       -0.2858
     29 O          21.3289   74.4575    1.0415 O.3     1  UNL1       -0.3226
     30 O          20.4842   73.4035    4.9458 O.3     1  UNL1       -0.3794
     31 O          22.2560   71.7490    3.3155 O.3     1  UNL1       -0.3775
     32 O          18.4636   74.7153    3.3187 O.3     1  UNL1       -0.3792
     33 C          20.4068   73.3056    3.5237 C.3     1  UNL1        0.1718
     34 C          21.8009   73.0472    2.9518 C.3     1  UNL1        0.1968
     35 C          19.8483   74.6261    2.9885 C.3     1  UNL1        0.1723
     36 C          21.7972   73.1646    1.4270 C.3     1  UNL1        0.2706
     37 C          19.9952   74.7194    1.4725 C.3     1  UNL1        0.1830
     38 H          20.8367   72.5755    5.3083 H       1  UNL1        0.2105
     39 H          22.2606   71.6674    4.2818 H       1  UNL1        0.2106
     40 H          18.3563   74.6570    4.2810 H       1  UNL1        0.2106
     41 O          19.7136   76.1653   -0.3528 O.co2   1  UNL1       -0.5466
     42 O          19.6220   77.0892    1.7298 O.co2   1  UNL1       -0.5466
     43 C          19.7590   76.1176    1.0017 C.2     1  UNL1        0.0799
@<TRIPOS>UNITY_ATOM_ATTR
2 1
charge -1
26 1
charge -1
41 1
charge -1
@<TRIPOS>BOND
     1     1     4    1
     2     1    24    1
     3     1     2    1
     4     1     3    2
     5    25    28    1
     6    25    24    1
     7    25    26    1
     8    25    27    2
     9     6    11    1
    10     6    12    1
    11    29    36    1
    12    29    37    1
    13     7     9    1
    14     7    13    1
    15     8    10    1
    16     8    14    1
    17     4     5    1
    18    28    36    1
    19    30    33    1
    20    30    38    1
    21    31    34    1
    22    31    39    1
    23    32    35    1
    24    32    40    1
    25    41    43   ar
    26    15    19    2
    27    42    43   ar
    28    16    22    2
    29    17    12    1
    30    17    19   ar
    31    17    20   ar
    32    18    19   ar
    33    18    22   ar
    34    18    23    1
    35     9    10    1
    36     9    11    1
    37    10    12    1
    38    11     5    1
    39    33    34    1
    40    33    35    1
    41    34    36    1
    42    35    37    1
    43    37    43    1
    44    20    21   ar
    45    21    22   ar
@<TRIPOS>MOLECULE
*****
 43 45 0 0 0
SMALL
GASTEIGER

@<TRIPOS>ATOM
      1 P          18.4833   70.1634   -3.1530 P.3     1  UNL1        0.2189
      2 O          17.1543   70.9023   -2.5991 O.co2   1  UNL1       -0.4371
      3 O          19.1086   69.1867   -2.2007 O.2     1  UNL1       -0.5170
      4 O          19.4331   71.3816   -3.6344 O.3     1  UNL1       -0.3112
      5 C          20.0133   72.2166   -2.6492 C.3     1  UNL1        0.1811
      6 O          22.0898   73.1525   -1.8814 O.3     1  UNL1       -0.3308
      7 O          23.4235   70.8449   -3.2553 O.3     1  UNL1       -0.3794
      8 O          23.4340   70.0688   -0.6412 O.3     1  UNL1       -0.3779
      9 C          22.1786   70.8841   -2.5573 C.3     1  UNL1        0.1713
     10 C          22.4170   70.9530   -1.0638 C.3     1  UNL1        0.1895
     11 C          21.5248   72.2302   -2.8380 C.3     1  UNL1        0.1764
     12 C          22.7937   72.4121   -0.8716 C.3     1  UNL1        0.2383
     13 H          23.8600   69.9939   -3.0912 H       1  UNL1        0.2105
     14 H          23.1461   69.1530   -0.7840 H       1  UNL1        0.2106
     15 O          21.1898   70.9998    0.9750 O.2     1  UNL1       -0.2464
     16 O          21.4076   74.4194    4.0576 O.2     1  UNL1       -0.2670
     17 N          22.4159   72.9099    0.4209 N.ar    1  UNL1       -0.2551
     18 N          21.2990   72.7048    2.5081 N.ar    1  UNL1       -0.2743
     19 C          21.6070   72.1207    1.2724 C.ar    1  UNL1        0.3323
     20 C          22.8467   74.1648    0.8339 C.ar    1  UNL1        0.0869
     21 C          22.5450   74.7080    2.0148 C.ar    1  UNL1        0.0795
     22 C          21.7033   73.9494    2.9632 C.ar    1  UNL1        0.2626
     23 H          20.7352   72.1751    3.1172 H       1  UNL1        0.1734
     24 O          17.9847   69.5179   -4.5485 O.3     1  UNL1       -0.2703
     25 P          17.1988   70.1732   -5.8002 P.3     1  UNL1        0.2208
     26 O          16.5733   71.5291   -5.1753 O.co2   1  UNL1       -0.4371
     27 O          16.1894   69.2633   -6.4382 O.2     1  UNL1       -0.5170
     28 O          18.3635   70.6823   -6.7936 O.3     1  UNL1       -0.2858
     29 O          17.2228   71.7002   -8.6024 O.3     1  UNL1       -0.3226
     30 O          21.1687   72.4572   -9.5641 O.3     1  UNL1       -0.3794
     31 O          20.3725   69.8453   -8.5256 O.3     1  UNL1       -0.3775
     32 O          19.4948   74.5792   -8.4937 O.3     1  UNL1       -0.3792
     33 C          20.0571   72.2450   -8.6939 C.3     1  UNL1        0.1718
     34 C          19.4662   70.8579   -8.9475 C.3     1  UNL1        0.1968
     35 C          19.0159   73.3283   -8.9839 C.3     1  UNL1        0.1723
     36 C          18.1420   70.6829   -8.2027 C.3     1  UNL1        0.2706
     37 C          17.6843   73.0166   -8.3071 C.3     1  UNL1        0.1830
     38 H          21.8436   71.7802   -9.3978 H       1  UNL1        0.2105
     39 H          21.2150   69.9505   -8.9939 H       1  UNL1        0.2106
     40 H          20.3421   74.7893   -8.9165 H       1  UNL1        0.2106
     41 O          17.1110   75.0203   -9.3832 O.co2   1  UNL1       -0.5466
     42 O          15.4052   73.6123   -8.8291 O.co2   1  UNL1       -0.5466
     43 C          16.5964   73.8836   -8.8522 C.2     1  UNL1        0.0799
@<TRIPOS>UNITY_ATOM_ATTR
2 1
charge -1
26 1
charge -1
41 1
charge -1
@<TRIPOS>BOND
     1     1     4    1
     2     1    24    1
     3     1     2    1
     4     1     3    2
     5    25    28    1
     6    25    24    1
     7    25    26    1
     8    25    27    2
     9     6    11    1
    10     6    12    1
    11    29    36    1
    12    29    37    1
    13     7     9    1
    14     7    13    1
    15     8    10    1
    16     8    14    1
    17     4     5    1
    18    28    36    1
    19    30    33    1
    20    30    38    1
    21    31    34    1
    22    31    39    1
    23    32    35    1
    24    32    40    1
    25    41    43   ar
    26    15    19    2
    27    42    43   ar
    28    16    22    2
    29    17    12    1
    30    17    19   ar
    31    17    20   ar
    32    18    19   ar
    33    18    22   ar
    34    18    23    1
    35     9    10    1
    36     9    11    1
    37    10    12    1
    38    11     5    1
    39    33    34    1
    40    33    35    1
    41    34    36    1
    42    35    37    1
    43    37    43    1
    44    20    21   ar
    45    21    22   ar
