@<TRIPOS>MOLECULE
GDU
 43 45 0 0 0
SMALL
GASTEIGER

@<TRIPOS>ATOM
      1 P          22.1173   70.9044   -2.5012 P.3     1  UNL1        0.2189
      2 O          21.5438   69.6464   -1.9738 O.2     1  UNL1       -0.5170
      3 O          23.5228   70.5925   -3.2225 O.3     1  UNL1       -0.4371
      4 O          21.1006   71.5536   -3.5651 O.3     1  UNL1       -0.3112
      5 C          20.1227   72.2760   -2.8153 C.3     1  UNL1        0.1811
      6 C          17.8903   71.3178   -5.4658 C.3     1  UNL1        0.2383
      7 C          17.9860   70.0605   -4.5641 C.3     1  UNL1        0.1895
      8 O          16.7687   69.3122   -4.6017 O.3     1  UNL1       -0.3779
      9 C          18.2095   70.6831   -3.1613 C.3     1  UNL1        0.1713
     10 C          18.7472   72.0949   -3.4598 C.3     1  UNL1        0.1764
     11 O          18.8567   72.2210   -4.8882 O.3     1  UNL1       -0.3308
     12 O          16.9761   70.7517   -2.4430 O.3     1  UNL1       -0.3794
     13 H          16.8938   68.5470   -4.0232 H       1  UNL1        0.2106
     14 H          16.6614   69.8434   -2.3394 H       1  UNL1        0.2105
     15 N          18.2492   70.9929   -6.8473 N.ar    1  UNL1       -0.2551
     16 C          17.2856   70.6744   -7.7294 C.ar    1  UNL1        0.3323
     17 N          17.5884   70.3751   -9.0064 N.ar    1  UNL1       -0.2743
     18 C          18.8701   70.3805   -9.4204 C.ar    1  UNL1        0.2626
     19 C          19.8963   70.7085   -8.5008 C.ar    1  UNL1        0.0795
     20 C          19.5644   71.0087   -7.2271 C.ar    1  UNL1        0.0869
     21 O          16.1248   70.6658   -7.3707 O.2     1  UNL1       -0.2464
     22 O          19.1457   70.1051  -10.5748 O.2     1  UNL1       -0.2670
     23 H          16.8798   70.1517   -9.6306 H       1  UNL1        0.1734
     24 O          22.3558   71.9348   -1.2872 O.3     1  UNL1       -0.2703
     25 P          22.3955   71.0622    0.0645 P.3     1  UNL1        0.2208
     26 O          21.1076   70.3534    0.2318 O.2     1  UNL1       -0.5170
     27 O          23.5913   69.9870   -0.0262 O.3     1  UNL1       -0.4371
     28 O          22.6427   72.0328    1.3241 O.3     1  UNL1       -0.2858
     29 C          21.9509   73.2520    1.0506 C.3     1  UNL1        0.2704
     30 C          22.9593   74.3974    0.9473 C.3     1  UNL1        0.1967
     31 C          23.7347   74.4993    2.2643 C.3     1  UNL1        0.1715
     32 C          22.7305   74.6163    3.4165 C.3     1  UNL1        0.1694
     33 C          21.7400   73.4522    3.3335 C.3     1  UNL1        0.1761
     34 O          23.8670   74.1406   -0.1257 O.3     1  UNL1       -0.3775
     35 O          24.5758   75.6545    2.2382 O.3     1  UNL1       -0.3794
     36 O          22.0282   75.8558    3.3142 O.3     1  UNL1       -0.3794
     37 O          21.0239   73.5164    2.1010 O.3     1  UNL1       -0.3258
     38 H          23.3360   74.0772   -0.9312 H       1  UNL1        0.2106
     39 H          25.1806   75.5435    1.4938 H       1  UNL1        0.2105
     40 H          22.6901   76.5576    3.3652 H       1  UNL1        0.2105
     41 C          20.7532   73.5404    4.4999 C.3     1  UNL1        0.1693
     42 O          21.3523   72.9863    5.6725 O.3     1  UNL1       -0.3794
     43 H          20.6999   73.0617    6.3824 H       1  UNL1        0.2105
@<TRIPOS>BOND
     1    15    16   ar
     2    15    20   ar
     3    15     6    1
     4    16    17   ar
     5    16    21    2
     6    17    18   ar
     7    17    23    1
     8    18    19   ar
     9    18    22    2
    10    19    20   ar
    11     6     7    1
    12     6    11    1
    13     7     8    1
    14     7     9    1
    15     8    13    1
    16     9    10    1
    17     9    12    1
    18    10    11    1
    19    10     5    1
    20    12    14    1
    21     5     4    1
    22     4     1    1
    23     1     2    2
    24     1     3    1
    25     1    24    1
    26    24    25    1
    27    25    26    2
    28    25    27    1
    29    25    28    1
    30    28    29    1
    31    29    30    1
    32    29    37    1
    33    30    31    1
    34    30    34    1
    35    31    32    1
    36    31    35    1
    37    32    33    1
    38    32    36    1
    39    33    41    1
    40    33    37    1
    41    41    42    1
    42    34    38    1
    43    35    39    1
    44    36    40    1
    45    42    43    1
@<TRIPOS>MOLECULE
GDU
 43 45 0 0 0
SMALL
GASTEIGER

@<TRIPOS>ATOM
      1 P          22.1033   71.1713   -1.8878 P.3     1  UNL1        0.2189
      2 O          21.8812   69.7389   -2.1850 O.2     1  UNL1       -0.5170
      3 O          22.8283   71.8735   -3.1425 O.3     1  UNL1       -0.4371
      4 O          20.6899   71.8885   -1.6143 O.3     1  UNL1       -0.3112
      5 C          20.3691   72.6326   -2.7907 C.3     1  UNL1        0.1811
      6 C          18.1278   71.2611   -5.2449 C.3     1  UNL1        0.2383
      7 C          18.5321   70.0493   -4.3669 C.3     1  UNL1        0.1895
      8 O          17.4749   69.0892   -4.3049 O.3     1  UNL1       -0.3779
      9 C          18.7591   70.7120   -2.9832 C.3     1  UNL1        0.1713
     10 C          18.9994   72.1966   -3.3142 C.3     1  UNL1        0.1764
     11 O          18.9582   72.3309   -4.7455 O.3     1  UNL1       -0.3308
     12 O          17.6020   70.5571   -2.1592 O.3     1  UNL1       -0.3794
     13 H          17.7890   68.3642   -3.7468 H       1  UNL1        0.2106
     14 H          17.4702   69.6072   -2.0371 H       1  UNL1        0.2105
     15 N          18.4180   70.9984   -6.6555 N.ar    1  UNL1       -0.2551
     16 C          17.4354   70.5775   -7.4713 C.ar    1  UNL1        0.3323
     17 N          17.6749   70.3322   -8.7730 N.ar    1  UNL1       -0.2743
     18 C          18.9121   70.4961   -9.2794 C.ar    1  UNL1        0.2626
     19 C          19.9583   70.9335   -8.4305 C.ar    1  UNL1        0.0795
     20 C          19.6897   71.1763   -7.1300 C.ar    1  UNL1        0.0869
     21 O          16.3141   70.4255   -7.0289 O.2     1  UNL1       -0.2464
     22 O          19.1309   70.2698  -10.4564 O.2     1  UNL1       -0.2670
     23 H          16.9528   70.0331   -9.3483 H       1  UNL1        0.1734
     24 O          23.0377   71.3092   -0.5838 O.3     1  UNL1       -0.2703
     25 P          22.2783   70.5528    0.6166 P.3     1  UNL1        0.2208
     26 O          21.4634   69.4475    0.0656 O.2     1  UNL1       -0.5170
     27 O          23.3635   69.9568    1.6468 O.3     1  UNL1       -0.4371
     28 O          21.3224   71.5926    1.3880 O.3     1  UNL1       -0.2858
     29 C          22.1506   72.6698    1.8278 C.3     1  UNL1        0.2704
     30 C          21.9443   72.8913    3.3271 C.3     1  UNL1        0.1967
     31 C          20.4674   73.2039    3.5864 C.3     1  UNL1        0.1715
     32 C          20.0498   74.3755    2.6904 C.3     1  UNL1        0.1694
     33 C          20.3982   74.0402    1.2381 C.3     1  UNL1        0.1761
     34 O          22.3179   71.7115    4.0411 O.3     1  UNL1       -0.3775
     35 O          20.2852   73.5575    4.9591 O.3     1  UNL1       -0.3794
     36 O          20.7449   75.5564    3.0932 O.3     1  UNL1       -0.3794
     37 O          21.8072   73.8539    1.1118 O.3     1  UNL1       -0.3258
     38 H          23.2503   71.5492    3.8432 H       1  UNL1        0.2106
     39 H          20.5706   72.7988    5.4837 H       1  UNL1        0.2105
     40 H          20.5004   75.7252    4.0125 H       1  UNL1        0.2105
     41 C          19.9541   75.1896    0.3305 C.3     1  UNL1        0.1693
     42 O          20.9967   76.1630    0.2512 O.3     1  UNL1       -0.3794
     43 H          20.6779   76.8680   -0.3290 H       1  UNL1        0.2105
@<TRIPOS>BOND
     1    15    16   ar
     2    15    20   ar
     3    15     6    1
     4    16    17   ar
     5    16    21    2
     6    17    18   ar
     7    17    23    1
     8    18    19   ar
     9    18    22    2
    10    19    20   ar
    11     6     7    1
    12     6    11    1
    13     7     8    1
    14     7     9    1
    15     8    13    1
    16     9    10    1
    17     9    12    1
    18    10    11    1
    19    10     5    1
    20    12    14    1
    21     5     4    1
    22     4     1    1
    23     1     2    2
    24     1     3    1
    25     1    24    1
    26    24    25    1
    27    25    26    2
    28    25    27    1
    29    25    28    1
    30    28    29    1
    31    29    30    1
    32    29    37    1
    33    30    31    1
    34    30    34    1
    35    31    32    1
    36    31    35    1
    37    32    33    1
    38    32    36    1
    39    33    41    1
    40    33    37    1
    41    41    42    1
    42    34    38    1
    43    35    39    1
    44    36    40    1
    45    42    43    1
@<TRIPOS>MOLECULE
GDU
 43 45 0 0 0
SMALL
GASTEIGER

@<TRIPOS>ATOM
      1 P          22.0157   70.3609   -0.2924 P.3     1  UNL1        0.2189
      2 O          23.0205   69.3063   -0.0321 O.2     1  UNL1       -0.5170
      3 O          22.7492   71.6661   -0.8854 O.3     1  UNL1       -0.4371
      4 O          20.9355   69.8229   -1.3556 O.3     1  UNL1       -0.3112
      5 C          21.0623   70.6371   -2.5225 C.3     1  UNL1        0.1811
      6 C          18.4760   71.0039   -4.9931 C.3     1  UNL1        0.2383
      7 C          18.1824   69.6376   -4.3223 C.3     1  UNL1        0.1895
      8 O          16.7806   69.3581   -4.3268 O.3     1  UNL1       -0.3779
      9 C          18.6957   69.8682   -2.8771 C.3     1  UNL1        0.1713
     10 C          19.6730   71.0507   -3.0113 C.3     1  UNL1        0.1764
     11 O          19.7309   71.4058   -4.4037 O.3     1  UNL1       -0.3308
     12 O          17.6111   70.2030   -2.0091 O.3     1  UNL1       -0.3794
     13 H          16.6662   68.4987   -3.8978 H       1  UNL1        0.2106
     14 H          17.0060   69.4489   -2.0133 H       1  UNL1        0.2105
     15 N          18.6125   70.8507   -6.4425 N.ar    1  UNL1       -0.2551
     16 C          17.5123   70.7938   -7.2136 C.ar    1  UNL1        0.3323
     17 N          17.6102   70.6567   -8.5490 N.ar    1  UNL1       -0.2743
     18 C          18.8189   70.5640   -9.1363 C.ar    1  UNL1        0.2626
     19 C          19.9863   70.6166   -8.3360 C.ar    1  UNL1        0.0795
     20 C          19.8597   70.7588   -6.9995 C.ar    1  UNL1        0.0869
     21 O          16.4153   70.8766   -6.6982 O.2     1  UNL1       -0.2464
     22 O          18.9084   70.4351  -10.3445 O.2     1  UNL1       -0.2670
     23 H          16.8058   70.6218   -9.0907 H       1  UNL1        0.1734
     24 O          21.2720   70.7436    1.0834 O.3     1  UNL1       -0.2703
     25 P          21.3920   72.3397    1.2504 P.3     1  UNL1        0.2208
     26 O          22.8121   72.7412    1.1443 O.2     1  UNL1       -0.5170
     27 O          20.5415   73.0658    0.0913 O.3     1  UNL1       -0.4371
     28 O          20.8165   72.7746    2.6891 O.3     1  UNL1       -0.2858
     29 C          21.2327   74.1224    2.9124 C.3     1  UNL1        0.2704
     30 C          22.0509   74.1956    4.2026 C.3     1  UNL1        0.1967
     31 C          21.1910   73.6951    5.3673 C.3     1  UNL1        0.1715
     32 C          19.8778   74.4856    5.3819 C.3     1  UNL1        0.1694
     33 C          19.2230   74.3886    4.0017 C.3     1  UNL1        0.1761
     34 O          23.2148   73.3763    4.0783 O.3     1  UNL1       -0.3775
     35 O          21.8880   73.8944    6.5989 O.3     1  UNL1       -0.3794
     36 O          20.1468   75.8532    5.6935 O.3     1  UNL1       -0.3794
     37 O          20.0847   74.9610    3.0190 O.3     1  UNL1       -0.3258
     38 H          23.7211   73.7225    3.3309 H       1  UNL1        0.2106
     39 H          22.7096   73.3906    6.5403 H       1  UNL1        0.2105
     40 H          20.5626   75.8651    6.5654 H       1  UNL1        0.2105
     41 C          17.8935   75.1464    4.0155 C.3     1  UNL1        0.1693
     42 O          17.4043   75.2239    5.3555 O.3     1  UNL1       -0.3794
     43 H          16.5679   75.7081    5.3205 H       1  UNL1        0.2105
@<TRIPOS>BOND
     1    15    16   ar
     2    15    20   ar
     3    15     6    1
     4    16    17   ar
     5    16    21    2
     6    17    18   ar
     7    17    23    1
     8    18    19   ar
     9    18    22    2
    10    19    20   ar
    11     6     7    1
    12     6    11    1
    13     7     8    1
    14     7     9    1
    15     8    13    1
    16     9    10    1
    17     9    12    1
    18    10    11    1
    19    10     5    1
    20    12    14    1
    21     5     4    1
    22     4     1    1
    23     1     2    2
    24     1     3    1
    25     1    24    1
    26    24    25    1
    27    25    26    2
    28    25    27    1
    29    25    28    1
    30    28    29    1
    31    29    30    1
    32    29    37    1
    33    30    31    1
    34    30    34    1
    35    31    32    1
    36    31    35    1
    37    32    33    1
    38    32    36    1
    39    33    41    1
    40    33    37    1
    41    41    42    1
    42    34    38    1
    43    35    39    1
    44    36    40    1
    45    42    43    1
@<TRIPOS>MOLECULE
GDU
 43 45 0 0 0
SMALL
GASTEIGER

@<TRIPOS>ATOM
      1 P          22.1009   73.9622   -6.7640 P.3     1  UNL1        0.2189
      2 O          22.8586   72.7214   -7.0391 O.2     1  UNL1       -0.5170
      3 O          23.1214   75.2043   -6.6700 O.3     1  UNL1       -0.4371
      4 O          21.0470   74.2223   -7.9508 O.3     1  UNL1       -0.3112
      5 C          21.3121   73.2473   -8.9605 C.3     1  UNL1        0.1811
      6 C          18.6475   71.1817   -7.7114 C.3     1  UNL1        0.2383
      7 C          18.0005   72.5772   -7.9037 C.3     1  UNL1        0.1895
      8 O          16.6145   72.4560   -8.2315 O.3     1  UNL1       -0.3779
      9 C          18.8046   73.1457   -9.1018 C.3     1  UNL1        0.1713
     10 C          20.1043   72.3197   -9.1059 C.3     1  UNL1        0.1764
     11 O          20.0444   71.4169   -7.9881 O.3     1  UNL1       -0.3308
     12 O          18.0825   72.9607  -10.3209 O.3     1  UNL1       -0.3794
     13 H          16.2733   73.3550   -8.3370 H       1  UNL1        0.2106
     14 H          17.2548   73.4526  -10.2336 H       1  UNL1        0.2105
     15 N          18.4659   70.7116   -6.3370 N.ar    1  UNL1       -0.2551
     16 C          17.3216   70.0977   -5.9879 C.ar    1  UNL1        0.3323
     17 N          17.1308   69.6528   -4.7319 N.ar    1  UNL1       -0.2743
     18 C          18.0851   69.8255   -3.7971 C.ar    1  UNL1        0.2626
     19 C          19.2933   70.4756   -4.1490 C.ar    1  UNL1        0.0795
     20 C          19.4603   70.9081   -5.4169 C.ar    1  UNL1        0.0869
     21 O          16.4519   69.9343   -6.8204 O.2     1  UNL1       -0.2464
     22 O          17.9114   69.4275   -2.6587 O.2     1  UNL1       -0.2670
     23 H          16.3005   69.2081   -4.4985 H       1  UNL1        0.1734
     24 O          21.3127   73.8103   -5.3682 O.3     1  UNL1       -0.2703
     25 P          22.4273   73.6831   -4.2143 P.3     1  UNL1        0.2208
     26 O          23.4997   72.7681   -4.6634 O.2     1  UNL1       -0.5170
     27 O          23.0538   75.1356   -3.9113 O.3     1  UNL1       -0.4371
     28 O          21.7506   73.1019   -2.8748 O.3     1  UNL1       -0.2858
     29 C          22.8153   72.6797   -2.0216 C.3     1  UNL1        0.2704
     30 C          22.5899   71.2245   -1.6082 C.3     1  UNL1        0.1967
     31 C          21.2429   71.1139   -0.8873 C.3     1  UNL1        0.1715
     32 C          21.2164   72.1296    0.2604 C.3     1  UNL1        0.1694
     33 C          21.5442   73.5176   -0.2956 C.3     1  UNL1        0.1761
     34 O          22.5827   70.3926   -2.7697 O.3     1  UNL1       -0.3775
     35 O          21.0844   69.7926   -0.3661 O.3     1  UNL1       -0.3794
     36 O          22.1839   71.7633    1.2451 O.3     1  UNL1       -0.3794
     37 O          22.8529   73.5115   -0.8643 O.3     1  UNL1       -0.3258
     38 H          23.4447   70.4991   -3.1945 H       1  UNL1        0.2106
     39 H          21.1192   69.1888   -1.1187 H       1  UNL1        0.2105
     40 H          21.9416   70.8834    1.5618 H       1  UNL1        0.2105
     41 C          21.4867   74.5454    0.8367 C.3     1  UNL1        0.1693
     42 O          20.4074   75.4515    0.6021 O.3     1  UNL1       -0.3794
     43 H          20.4055   76.0806    1.3366 H       1  UNL1        0.2105
@<TRIPOS>BOND
     1    15    16   ar
     2    15    20   ar
     3    15     6    1
     4    16    17   ar
     5    16    21    2
     6    17    18   ar
     7    17    23    1
     8    18    19   ar
     9    18    22    2
    10    19    20   ar
    11     6     7    1
    12     6    11    1
    13     7     8    1
    14     7     9    1
    15     8    13    1
    16     9    10    1
    17     9    12    1
    18    10    11    1
    19    10     5    1
    20    12    14    1
    21     5     4    1
    22     4     1    1
    23     1     2    2
    24     1     3    1
    25     1    24    1
    26    24    25    1
    27    25    26    2
    28    25    27    1
    29    25    28    1
    30    28    29    1
    31    29    30    1
    32    29    37    1
    33    30    31    1
    34    30    34    1
    35    31    32    1
    36    31    35    1
    37    32    33    1
    38    32    36    1
    39    33    41    1
    40    33    37    1
    41    41    42    1
    42    34    38    1
    43    35    39    1
    44    36    40    1
    45    42    43    1
@<TRIPOS>MOLECULE
GDU
 43 45 0 0 0
SMALL
GASTEIGER

@<TRIPOS>ATOM
      1 P          21.8570   73.3751   -7.3450 P.3     1  UNL1        0.2189
      2 O          23.1544   73.9337   -7.7859 O.2     1  UNL1       -0.5170
      3 O          20.8200   74.5766   -7.0735 O.3     1  UNL1       -0.4371
      4 O          21.2713   72.4091   -8.4899 O.3     1  UNL1       -0.3112
      5 C          20.2155   73.1238   -9.1340 C.3     1  UNL1        0.1811
      6 C          17.8028   71.1482   -7.3443 C.3     1  UNL1        0.2383
      7 C          17.3207   72.6101   -7.1621 C.3     1  UNL1        0.1895
      8 O          15.8973   72.6667   -7.0438 O.3     1  UNL1       -0.3779
      9 C          17.7929   73.2747   -8.4814 C.3     1  UNL1        0.1713
     10 C          18.9078   72.3430   -8.9917 C.3     1  UNL1        0.1764
     11 O          19.0689   71.2930   -8.0223 O.3     1  UNL1       -0.3308
     12 O          16.7178   73.3405   -9.4204 O.3     1  UNL1       -0.3794
     13 H          15.6635   73.5988   -6.9331 H       1  UNL1        0.2106
     14 H          16.0289   73.8877   -9.0195 H       1  UNL1        0.2105
     15 N          17.9846   70.4971   -6.0458 N.ar    1  UNL1       -0.2551
     16 C          17.1050   69.5653   -5.6381 C.ar    1  UNL1        0.3323
     17 N          17.2512   68.9491   -4.4503 N.ar    1  UNL1       -0.2743
     18 C          18.2815   69.2653   -3.6425 C.ar    1  UNL1        0.2626
     19 C          19.2127   70.2492   -4.0564 C.ar    1  UNL1        0.0795
     20 C          19.0449   70.8486   -5.2543 C.ar    1  UNL1        0.0869
     21 O          16.1708   69.2692   -6.3562 O.2     1  UNL1       -0.2464
     22 O          18.4120   68.7115   -2.5651 O.2     1  UNL1       -0.2670
     23 H          16.6093   68.2758   -4.1739 H       1  UNL1        0.1734
     24 O          22.0692   72.5342   -5.9884 O.3     1  UNL1       -0.2703
     25 P          22.1867   73.6027   -4.7907 P.3     1  UNL1        0.2208
     26 O          23.3261   74.5103   -5.0498 O.2     1  UNL1       -0.5170
     27 O          20.8268   74.4612   -4.7023 O.3     1  UNL1       -0.4371
     28 O          22.4221   72.8278   -3.4000 O.3     1  UNL1       -0.2858
     29 C          21.4022   73.2677   -2.5021 C.3     1  UNL1        0.2704
     30 C          22.0190   74.1748   -1.4361 C.3     1  UNL1        0.1967
     31 C          23.1022   73.3953   -0.6842 C.3     1  UNL1        0.1715
     32 C          22.4915   72.0917   -0.1575 C.3     1  UNL1        0.1694
     33 C          21.8402   71.3412   -1.3218 C.3     1  UNL1        0.1761
     34 O          22.5988   75.3215   -2.0606 O.3     1  UNL1       -0.3775
     35 O          23.5853   74.1782    0.4095 O.3     1  UNL1       -0.3794
     36 O          21.5081   72.3912    0.8341 O.3     1  UNL1       -0.3794
     37 O          20.7961   72.1357   -1.8827 O.3     1  UNL1       -0.3258
     38 H          21.8842   75.7765   -2.5268 H       1  UNL1        0.2106
     39 H          23.9480   74.9903    0.0337 H       1  UNL1        0.2105
     40 H          21.9608   72.8671    1.5425 H       1  UNL1        0.2105
     41 C          21.2569   70.0211   -0.8128 C.3     1  UNL1        0.1693
     42 O          21.8100   69.7200    0.4696 O.3     1  UNL1       -0.3794
     43 H          21.4171   68.8834    0.7544 H       1  UNL1        0.2105
@<TRIPOS>BOND
     1    15    16   ar
     2    15    20   ar
     3    15     6    1
     4    16    17   ar
     5    16    21    2
     6    17    18   ar
     7    17    23    1
     8    18    19   ar
     9    18    22    2
    10    19    20   ar
    11     6     7    1
    12     6    11    1
    13     7     8    1
    14     7     9    1
    15     8    13    1
    16     9    10    1
    17     9    12    1
    18    10    11    1
    19    10     5    1
    20    12    14    1
    21     5     4    1
    22     4     1    1
    23     1     2    2
    24     1     3    1
    25     1    24    1
    26    24    25    1
    27    25    26    2
    28    25    27    1
    29    25    28    1
    30    28    29    1
    31    29    30    1
    32    29    37    1
    33    30    31    1
    34    30    34    1
    35    31    32    1
    36    31    35    1
    37    32    33    1
    38    32    36    1
    39    33    41    1
    40    33    37    1
    41    41    42    1
    42    34    38    1
    43    35    39    1
    44    36    40    1
    45    42    43    1
@<TRIPOS>MOLECULE
GDU
 43 45 0 0 0
SMALL
GASTEIGER

@<TRIPOS>ATOM
      1 P          22.1114   70.7499   -0.2460 P.3     1  UNL1        0.2189
      2 O          21.4096   69.5162    0.1722 O.2     1  UNL1       -0.5170
      3 O          23.3860   70.3618   -1.1504 O.3     1  UNL1       -0.4371
      4 O          21.1097   71.6749   -1.0991 O.3     1  UNL1       -0.3112
      5 C          21.0508   71.1183   -2.4134 C.3     1  UNL1        0.1811
      6 C          18.4482   70.7483   -4.8663 C.3     1  UNL1        0.2383
      7 C          18.6651   69.3176   -4.3103 C.3     1  UNL1        0.1895
      8 O          17.4498   68.5661   -4.3483 O.3     1  UNL1       -0.3779
      9 C          19.0957   69.5995   -2.8473 C.3     1  UNL1        0.1713
     10 C          19.5947   71.0561   -2.8780 C.3     1  UNL1        0.1764
     11 O          19.4954   71.5168   -4.2367 O.3     1  UNL1       -0.3308
     12 O          17.9809   69.4641   -1.9635 O.3     1  UNL1       -0.3794
     13 H          17.6523   67.6902   -3.9909 H       1  UNL1        0.2106
     14 H          17.6779   68.5486   -2.0332 H       1  UNL1        0.2105
     15 N          18.5992   70.7665   -6.3222 N.ar    1  UNL1       -0.2551
     16 C          17.5182   70.6108   -7.1068 C.ar    1  UNL1        0.3323
     17 N          17.6292   70.6273   -8.4482 N.ar    1  UNL1       -0.2743
     18 C          18.8334   70.7910   -9.0289 C.ar    1  UNL1        0.2626
     19 C          19.9816   70.9504   -8.2151 C.ar    1  UNL1        0.0795
     20 C          19.8415   70.9343   -6.8725 C.ar    1  UNL1        0.0869
     21 O          16.4253   70.4627   -6.5973 O.2     1  UNL1       -0.2464
     22 O          18.9355   70.8012  -10.2430 O.2     1  UNL1       -0.2670
     23 H          16.8378   70.5177   -8.9990 H       1  UNL1        0.1734
     24 O          22.6058   71.5535    1.0588 O.3     1  UNL1       -0.2703
     25 P          22.2156   73.0981    0.8313 P.3     1  UNL1        0.2208
     26 O          23.0339   73.6567   -0.2675 O.2     1  UNL1       -0.5170
     27 O          20.6554   73.2061    0.4461 O.3     1  UNL1       -0.4371
     28 O          22.4920   73.9273    2.1826 O.3     1  UNL1       -0.2858
     29 C          22.8890   72.9812    3.1761 C.3     1  UNL1        0.2704
     30 C          21.6753   72.5900    4.0206 C.3     1  UNL1        0.1967
     31 C          21.0956   73.8486    4.6734 C.3     1  UNL1        0.1715
     32 C          22.2159   74.5663    5.4346 C.3     1  UNL1        0.1694
     33 C          23.3887   74.8095    4.4815 C.3     1  UNL1        0.1761
     34 O          20.6870   71.9833    3.1861 O.3     1  UNL1       -0.3775
     35 O          20.0536   73.4825    5.5804 O.3     1  UNL1       -0.3794
     36 O          22.6443   73.7561    6.5301 O.3     1  UNL1       -0.3794
     37 O          23.8912   73.5607    4.0082 O.3     1  UNL1       -0.3258
     38 H          21.0969   71.2015    2.7915 H       1  UNL1        0.2106
     39 H          19.3792   73.0254    5.0622 H       1  UNL1        0.2105
     40 H          21.8745   73.6246    7.0988 H       1  UNL1        0.2105
     41 C          24.4997   75.5564    5.2229 C.3     1  UNL1        0.1693
     42 O          25.7413   74.8769    5.0286 O.3     1  UNL1       -0.3794
     43 H          26.4134   75.3787    5.5099 H       1  UNL1        0.2105
@<TRIPOS>BOND
     1    15    16   ar
     2    15    20   ar
     3    15     6    1
     4    16    17   ar
     5    16    21    2
     6    17    18   ar
     7    17    23    1
     8    18    19   ar
     9    18    22    2
    10    19    20   ar
    11     6     7    1
    12     6    11    1
    13     7     8    1
    14     7     9    1
    15     8    13    1
    16     9    10    1
    17     9    12    1
    18    10    11    1
    19    10     5    1
    20    12    14    1
    21     5     4    1
    22     4     1    1
    23     1     2    2
    24     1     3    1
    25     1    24    1
    26    24    25    1
    27    25    26    2
    28    25    27    1
    29    25    28    1
    30    28    29    1
    31    29    30    1
    32    29    37    1
    33    30    31    1
    34    30    34    1
    35    31    32    1
    36    31    35    1
    37    32    33    1
    38    32    36    1
    39    33    41    1
    40    33    37    1
    41    41    42    1
    42    34    38    1
    43    35    39    1
    44    36    40    1
    45    42    43    1
@<TRIPOS>MOLECULE
GDU
 43 45 0 0 0
SMALL
GASTEIGER

@<TRIPOS>ATOM
      1 P          22.2042   70.3876   -0.3006 P.3     1  UNL1        0.2189
      2 O          23.2102   71.3943   -0.7056 O.2     1  UNL1       -0.5170
      3 O          22.9327   69.1888    0.4899 O.3     1  UNL1       -0.4371
      4 O          21.1112   71.0761    0.6577 O.3     1  UNL1       -0.3112
      5 C          21.8325   71.8335    1.6307 C.3     1  UNL1        0.1811
      6 C          21.0484   74.5510    3.8505 C.3     1  UNL1        0.2383
      7 C          21.4470   75.2384    2.5195 C.3     1  UNL1        0.1895
      8 O          20.7454   76.4726    2.3529 O.3     1  UNL1       -0.3779
      9 C          20.9903   74.1959    1.4660 C.3     1  UNL1        0.1713
     10 C          20.9057   72.8772    2.2567 C.3     1  UNL1        0.1764
     11 O          21.3232   73.1555    3.6044 O.3     1  UNL1       -0.3308
     12 O          19.7126   74.5506    0.9334 O.3     1  UNL1       -0.3794
     13 H          21.0373   76.8478    1.5104 H       1  UNL1        0.2106
     14 H          19.8173   75.4101    0.5032 H       1  UNL1        0.2105
     15 N          21.8666   75.0505    4.9568 N.ar    1  UNL1       -0.2551
     16 C          21.3735   75.0421    6.2078 C.ar    1  UNL1        0.3323
     17 N          22.1064   75.4924    7.2431 N.ar    1  UNL1       -0.2743
     18 C          23.3490   75.9706    7.0394 C.ar    1  UNL1        0.2626
     19 C          23.8794   75.9910    5.7262 C.ar    1  UNL1        0.0795
     20 C          23.1245   75.5294    4.7066 C.ar    1  UNL1        0.0869
     21 O          20.2543   74.6133    6.4070 O.2     1  UNL1       -0.2464
     22 O          24.0114   76.3828    7.9753 O.2     1  UNL1       -0.2670
     23 H          21.7362   75.4749    8.1399 H       1  UNL1        0.1734
     24 O          21.4765   69.8001   -1.6112 O.3     1  UNL1       -0.2703
     25 P          21.7833   70.8245   -2.8140 P.3     1  UNL1        0.2208
     26 O          21.5271   72.2091   -2.3597 O.2     1  UNL1       -0.5170
     27 O          23.3246   70.6829   -3.2592 O.3     1  UNL1       -0.4371
     28 O          20.8309   70.4845   -4.0660 O.3     1  UNL1       -0.2858
     29 C          19.9294   71.5826   -4.2118 C.3     1  UNL1        0.2704
     30 C          18.5335   71.1599   -3.7514 C.3     1  UNL1        0.1967
     31 C          18.0716   69.9655   -4.5920 C.3     1  UNL1        0.1715
     32 C          18.1847   70.3370   -6.0749 C.3     1  UNL1        0.1694
     33 C          19.6088   70.8206   -6.3596 C.3     1  UNL1        0.1761
     34 O          18.5763   70.7886   -2.3725 O.3     1  UNL1       -0.3775
     35 O          16.7137   69.6520   -4.2753 O.3     1  UNL1       -0.3794
     36 O          17.2525   71.3752   -6.3799 O.3     1  UNL1       -0.3794
     37 O          19.8876   71.9824   -5.5797 O.3     1  UNL1       -0.3258
     38 H          18.8781   71.5661   -1.8834 H       1  UNL1        0.2106
     39 H          16.6882   69.4372   -3.3343 H       1  UNL1        0.2105
     40 H          16.3729   71.0290   -6.1804 H       1  UNL1        0.2105
     41 C          19.7422   71.1617   -7.8455 C.3     1  UNL1        0.1693
     42 O          20.9964   71.8063   -8.0746 O.3     1  UNL1       -0.3794
     43 H          21.0412   72.0033   -9.0204 H       1  UNL1        0.2105
@<TRIPOS>BOND
     1    15    16   ar
     2    15    20   ar
     3    15     6    1
     4    16    17   ar
     5    16    21    2
     6    17    18   ar
     7    17    23    1
     8    18    19   ar
     9    18    22    2
    10    19    20   ar
    11     6     7    1
    12     6    11    1
    13     7     8    1
    14     7     9    1
    15     8    13    1
    16     9    10    1
    17     9    12    1
    18    10    11    1
    19    10     5    1
    20    12    14    1
    21     5     4    1
    22     4     1    1
    23     1     2    2
    24     1     3    1
    25     1    24    1
    26    24    25    1
    27    25    26    2
    28    25    27    1
    29    25    28    1
    30    28    29    1
    31    29    30    1
    32    29    37    1
    33    30    31    1
    34    30    34    1
    35    31    32    1
    36    31    35    1
    37    32    33    1
    38    32    36    1
    39    33    41    1
    40    33    37    1
    41    41    42    1
    42    34    38    1
    43    35    39    1
    44    36    40    1
    45    42    43    1
@<TRIPOS>MOLECULE
GDU
 43 45 0 0 0
SMALL
GASTEIGER

@<TRIPOS>ATOM
      1 P          21.9466   70.5402   -0.4205 P.3     1  UNL1        0.2189
      2 O          23.3838   70.6603   -0.7516 O.2     1  UNL1       -0.5170
      3 O          21.7583   69.4777    0.7748 O.3     1  UNL1       -0.4371
      4 O          21.3801   71.9730    0.0409 O.3     1  UNL1       -0.3112
      5 C          22.4935   72.7178    0.5371 C.3     1  UNL1        0.1811
      6 C          23.0185   74.0282    3.8439 C.3     1  UNL1        0.2383
      7 C          21.5084   74.2495    3.5729 C.3     1  UNL1        0.1895
      8 O          20.7573   74.1831    4.7873 O.3     1  UNL1       -0.3779
      9 C          21.1664   73.0548    2.6450 C.3     1  UNL1        0.1713
     10 C          22.5280   72.6304    2.0640 C.3     1  UNL1        0.1764
     11 O          23.5184   73.5350    2.5828 O.3     1  UNL1       -0.3308
     12 O          20.5818   71.9896    3.3969 O.3     1  UNL1       -0.3794
     13 H          19.8307   74.3284    4.5504 H       1  UNL1        0.2106
     14 H          19.7650   72.3343    3.7826 H       1  UNL1        0.2105
     15 N          23.6711   75.2894    4.1996 N.ar    1  UNL1       -0.2551
     16 C          24.8166   75.2720    4.9038 C.ar    1  UNL1        0.3323
     17 N          25.4386   76.4172    5.2407 N.ar    1  UNL1       -0.2743
     18 C          24.9150   77.6058    4.8840 C.ar    1  UNL1        0.2626
     19 C          23.7059   77.6396    4.1470 C.ar    1  UNL1        0.0795
     20 C          23.1051   76.4762    3.8186 C.ar    1  UNL1        0.0869
     21 O          25.3012   74.2074    5.2323 O.2     1  UNL1       -0.2464
     22 O          25.4748   78.6431    5.1927 O.2     1  UNL1       -0.2670
     23 H          26.2668   76.3858    5.7456 H       1  UNL1        0.1734
     24 O          21.1384   70.0347   -1.7181 O.3     1  UNL1       -0.2703
     25 P          21.6609   70.9100   -2.9635 P.3     1  UNL1        0.2208
     26 O          21.5731   72.3480   -2.6267 O.2     1  UNL1       -0.5170
     27 O          23.1921   70.5267   -3.2836 O.3     1  UNL1       -0.4371
     28 O          20.7511   70.6038   -4.2552 O.3     1  UNL1       -0.2858
     29 C          19.9745   71.7765   -4.5032 C.3     1  UNL1        0.2704
     30 C          18.5528   71.5656   -3.9802 C.3     1  UNL1        0.1967
     31 C          17.9380   70.3512   -4.6828 C.3     1  UNL1        0.1715
     32 C          18.0525   70.5519   -6.1982 C.3     1  UNL1        0.1694
     33 C          19.5137   70.8379   -6.5534 C.3     1  UNL1        0.1761
     34 O          18.5904   71.3365   -2.5705 O.3     1  UNL1       -0.3775
     35 O          16.5624   70.2291   -4.3148 O.3     1  UNL1       -0.3794
     36 O          17.2345   71.6525   -6.5976 O.3     1  UNL1       -0.3794
     37 O          19.9413   72.0348   -5.9049 O.3     1  UNL1       -0.3258
     38 H          18.9902   72.1210   -2.1709 H       1  UNL1        0.2106
     39 H          16.5381   70.1171   -3.3561 H       1  UNL1        0.2105
     40 H          16.3273   71.4313   -6.3497 H       1  UNL1        0.2105
     41 C          19.6449   71.0060   -8.0688 C.3     1  UNL1        0.1693
     42 O          20.9276   71.5542   -8.3771 O.3     1  UNL1       -0.3794
     43 H          20.9700   71.6434   -9.3392 H       1  UNL1        0.2105
@<TRIPOS>BOND
     1    15    16   ar
     2    15    20   ar
     3    15     6    1
     4    16    17   ar
     5    16    21    2
     6    17    18   ar
     7    17    23    1
     8    18    19   ar
     9    18    22    2
    10    19    20   ar
    11     6     7    1
    12     6    11    1
    13     7     8    1
    14     7     9    1
    15     8    13    1
    16     9    10    1
    17     9    12    1
    18    10    11    1
    19    10     5    1
    20    12    14    1
    21     5     4    1
    22     4     1    1
    23     1     2    2
    24     1     3    1
    25     1    24    1
    26    24    25    1
    27    25    26    2
    28    25    27    1
    29    25    28    1
    30    28    29    1
    31    29    30    1
    32    29    37    1
    33    30    31    1
    34    30    34    1
    35    31    32    1
    36    31    35    1
    37    32    33    1
    38    32    36    1
    39    33    41    1
    40    33    37    1
    41    41    42    1
    42    34    38    1
    43    35    39    1
    44    36    40    1
    45    42    43    1
@<TRIPOS>MOLECULE
GDU
 43 45 0 0 0
SMALL
GASTEIGER

@<TRIPOS>ATOM
      1 P          20.9386   75.2712   -3.9838 P.3     1  UNL1        0.2189
      2 O          20.2657   76.3972   -4.6686 O.2     1  UNL1       -0.5170
      3 O          20.9765   75.5527   -2.3988 O.3     1  UNL1       -0.4371
      4 O          20.1306   73.9098   -4.2679 O.3     1  UNL1       -0.3112
      5 C          18.9553   73.9493   -3.4569 C.3     1  UNL1        0.1811
      6 C          17.7916   71.3785   -5.6849 C.3     1  UNL1        0.2383
      7 C          18.5963   70.6181   -4.5999 C.3     1  UNL1        0.1895
      8 O          18.0645   69.3071   -4.3957 O.3     1  UNL1       -0.3779
      9 C          18.3739   71.5064   -3.3482 C.3     1  UNL1        0.1713
     10 C          17.9726   72.8756   -3.9276 C.3     1  UNL1        0.1764
     11 O          18.0175   72.7668   -5.3608 O.3     1  UNL1       -0.3308
     12 O          17.3261   70.9725   -2.5365 O.3     1  UNL1       -0.3794
     13 H          18.6074   68.8893   -3.7126 H       1  UNL1        0.2106
     14 H          17.6114   70.0931   -2.2536 H       1  UNL1        0.2105
     15 N          18.3043   71.0706   -7.0210 N.ar    1  UNL1       -0.2551
     16 C          17.4489   70.7325   -8.0019 C.ar    1  UNL1        0.3323
     17 N          17.8940   70.4482   -9.2400 N.ar    1  UNL1       -0.2743
     18 C          19.2120   70.4886   -9.5147 C.ar    1  UNL1        0.2626
     19 C          20.1252   70.8375   -8.4898 C.ar    1  UNL1        0.0795
     20 C          19.6516   71.1221   -7.2581 C.ar    1  UNL1        0.0869
     21 O          16.2571   70.6923   -7.7693 O.2     1  UNL1       -0.2464
     22 O          19.6162   70.2268  -10.6339 O.2     1  UNL1       -0.2670
     23 H          17.2621   70.2102   -9.9370 H       1  UNL1        0.1734
     24 O          22.4435   75.1293   -4.5384 O.3     1  UNL1       -0.2703
     25 P          22.9669   73.6719   -4.1001 P.3     1  UNL1        0.2208
     26 O          22.7410   72.7140   -5.2048 O.2     1  UNL1       -0.5170
     27 O          24.5411   73.7450   -3.7673 O.3     1  UNL1       -0.4371
     28 O          22.1654   73.1835   -2.7927 O.3     1  UNL1       -0.2858
     29 C          23.1120   72.5311   -1.9453 C.3     1  UNL1        0.2704
     30 C          22.6917   71.0750   -1.7389 C.3     1  UNL1        0.1967
     31 C          21.2939   71.0435   -1.1132 C.3     1  UNL1        0.1715
     32 C          21.3047   71.9053    0.1544 C.3     1  UNL1        0.1694
     33 C          21.8287   73.3000   -0.1965 C.3     1  UNL1        0.1761
     34 O          22.6696   70.4001   -2.9979 O.3     1  UNL1       -0.3775
     35 O          20.9478   69.6978   -0.7789 O.3     1  UNL1       -0.3794
     36 O          22.1523   71.3036    1.1339 O.3     1  UNL1       -0.3794
     37 O          23.1644   73.2026   -0.6888 O.3     1  UNL1       -0.3258
     38 H          23.5657   70.4509   -3.3575 H       1  UNL1        0.2106
     39 H          20.9652   69.1918   -1.6010 H       1  UNL1        0.2105
     40 H          21.7885   70.4280    1.3191 H       1  UNL1        0.2105
     41 C          21.8113   74.1794    1.0558 C.3     1  UNL1        0.1693
     42 O          21.3363   75.4829    0.7150 O.3     1  UNL1       -0.3794
     43 H          21.3401   76.0041    1.5296 H       1  UNL1        0.2105
@<TRIPOS>BOND
     1    15    16   ar
     2    15    20   ar
     3    15     6    1
     4    16    17   ar
     5    16    21    2
     6    17    18   ar
     7    17    23    1
     8    18    19   ar
     9    18    22    2
    10    19    20   ar
    11     6     7    1
    12     6    11    1
    13     7     8    1
    14     7     9    1
    15     8    13    1
    16     9    10    1
    17     9    12    1
    18    10    11    1
    19    10     5    1
    20    12    14    1
    21     5     4    1
    22     4     1    1
    23     1     2    2
    24     1     3    1
    25     1    24    1
    26    24    25    1
    27    25    26    2
    28    25    27    1
    29    25    28    1
    30    28    29    1
    31    29    30    1
    32    29    37    1
    33    30    31    1
    34    30    34    1
    35    31    32    1
    36    31    35    1
    37    32    33    1
    38    32    36    1
    39    33    41    1
    40    33    37    1
    41    41    42    1
    42    34    38    1
    43    35    39    1
    44    36    40    1
    45    42    43    1
@<TRIPOS>MOLECULE
GDU
 43 45 0 0 0
SMALL
GASTEIGER

@<TRIPOS>ATOM
      1 P          21.8918   70.7859    0.3563 P.3     1  UNL1        0.2189
      2 O          21.5530   69.3558    0.5281 O.2     1  UNL1       -0.5170
      3 O          23.4656   70.9313    0.0482 O.3     1  UNL1       -0.4371
      4 O          21.0466   71.3946   -0.8692 O.3     1  UNL1       -0.3112
      5 C          20.4751   70.2875   -1.5680 C.3     1  UNL1        0.1811
      6 C          20.2854   70.8692   -5.1110 C.3     1  UNL1        0.2383
      7 C          20.9721   72.1383   -4.5445 C.3     1  UNL1        0.1895
      8 O          21.8779   72.6970   -5.4988 O.3     1  UNL1       -0.3779
      9 C          21.7378   71.5740   -3.3196 C.3     1  UNL1        0.1713
     10 C          21.0119   70.2540   -3.0001 C.3     1  UNL1        0.1764
     11 O          19.9206   70.1271   -3.9280 O.3     1  UNL1       -0.3308
     12 O          23.1060   71.3322   -3.6537 O.3     1  UNL1       -0.3794
     13 H          22.2695   73.4797   -5.0866 H       1  UNL1        0.2106
     14 H          23.4889   72.1849   -3.9006 H       1  UNL1        0.2105
     15 N          19.0945   71.2260   -5.8838 N.ar    1  UNL1       -0.2551
     16 C          19.0539   70.9688   -7.2031 C.ar    1  UNL1        0.3323
     17 N          17.9696   71.2835   -7.9359 N.ar    1  UNL1       -0.2743
     18 C          16.9058   71.8735   -7.3575 C.ar    1  UNL1        0.2626
     19 C          16.9367   72.1557   -5.9699 C.ar    1  UNL1        0.0795
     20 C          18.0351   71.8257   -5.2576 C.ar    1  UNL1        0.0869
     21 O          20.0057   70.4365   -7.7387 O.2     1  UNL1       -0.2464
     22 O          15.9258   72.1631   -8.0210 O.2     1  UNL1       -0.2670
     23 H          17.9558   71.0868   -8.8861 H       1  UNL1        0.1734
     24 O          21.5345   71.5870    1.7065 O.3     1  UNL1       -0.2703
     25 P          21.6520   73.1551    1.3638 P.3     1  UNL1        0.2208
     26 O          22.8540   73.3896    0.5336 O.2     1  UNL1       -0.5170
     27 O          20.3414   73.6269    0.5550 O.3     1  UNL1       -0.4371
     28 O          21.7697   73.9969    2.7303 O.3     1  UNL1       -0.2858
     29 C          23.0252   73.6570    3.3202 C.3     1  UNL1        0.2704
     30 C          22.8036   73.2057    4.7647 C.3     1  UNL1        0.1967
     31 C          22.1293   74.3394    5.5434 C.3     1  UNL1        0.1715
     32 C          22.9671   75.6125    5.3791 C.3     1  UNL1        0.1694
     33 C          23.1747   75.8826    3.8868 C.3     1  UNL1        0.1761
     34 O          21.9666   72.0479    4.7812 O.3     1  UNL1       -0.3775
     35 O          22.0488   73.9900    6.9269 O.3     1  UNL1       -0.3794
     36 O          24.2322   75.4379    6.0186 O.3     1  UNL1       -0.3794
     37 O          23.8837   74.7949    3.2949 O.3     1  UNL1       -0.3258
     38 H          22.4260   71.3643    4.2748 H       1  UNL1        0.2106
     39 H          21.5254   73.1804    6.9810 H       1  UNL1        0.2105
     40 H          24.0525   75.2651    6.9520 H       1  UNL1        0.2105
     41 C          23.9814   77.1711    3.7109 C.3     1  UNL1        0.1693
     42 O          23.7148   78.0520    4.8036 O.3     1  UNL1       -0.3794
     43 H          24.2415   78.8493    4.6553 H       1  UNL1        0.2105
@<TRIPOS>BOND
     1    15    16   ar
     2    15    20   ar
     3    15     6    1
     4    16    17   ar
     5    16    21    2
     6    17    18   ar
     7    17    23    1
     8    18    19   ar
     9    18    22    2
    10    19    20   ar
    11     6     7    1
    12     6    11    1
    13     7     8    1
    14     7     9    1
    15     8    13    1
    16     9    10    1
    17     9    12    1
    18    10    11    1
    19    10     5    1
    20    12    14    1
    21     5     4    1
    22     4     1    1
    23     1     2    2
    24     1     3    1
    25     1    24    1
    26    24    25    1
    27    25    26    2
    28    25    27    1
    29    25    28    1
    30    28    29    1
    31    29    30    1
    32    29    37    1
    33    30    31    1
    34    30    34    1
    35    31    32    1
    36    31    35    1
    37    32    33    1
    38    32    36    1
    39    33    41    1
    40    33    37    1
    41    41    42    1
    42    34    38    1
    43    35    39    1
    44    36    40    1
    45    42    43    1
@<TRIPOS>MOLECULE
GDU
 43 45 0 0 0
SMALL
GASTEIGER

@<TRIPOS>ATOM
      1 P          21.9170   70.8524   -0.1782 P.3     1  UNL1        0.2189
      2 O          21.6416   69.5691    0.5050 O.2     1  UNL1       -0.5170
      3 O          20.5281   71.6114   -0.4743 O.3     1  UNL1       -0.4371
      4 O          22.8421   71.7734    0.7613 O.3     1  UNL1       -0.3112
      5 C          22.3699   71.6056    2.0990 C.3     1  UNL1        0.1811
      6 C          20.4970   73.9628    4.0646 C.3     1  UNL1        0.2383
      7 C          21.4554   74.8378    3.2167 C.3     1  UNL1        0.1895
      8 O          20.8665   76.1083    2.9300 O.3     1  UNL1       -0.3779
      9 C          21.6074   73.9943    1.9241 C.3     1  UNL1        0.1713
     10 C          21.2114   72.5706    2.3575 C.3     1  UNL1        0.1764
     11 O          20.9173   72.6149    3.7646 O.3     1  UNL1       -0.3308
     12 O          20.7286   74.4772    0.9062 O.3     1  UNL1       -0.3794
     13 H          21.5105   76.6016    2.4029 H       1  UNL1        0.2106
     14 H          20.9891   75.3896    0.7209 H       1  UNL1        0.2105
     15 N          20.6602   74.2486    5.4909 N.ar    1  UNL1       -0.2551
     16 C          21.8078   73.9198    6.1099 C.ar    1  UNL1        0.3323
     17 N          21.9848   74.1748    7.4196 N.ar    1  UNL1       -0.2743
     18 C          21.0053   74.7578    8.1372 C.ar    1  UNL1        0.2626
     19 C          19.7888   75.1044    7.4999 C.ar    1  UNL1        0.0795
     20 C          19.6393   74.8413    6.1842 C.ar    1  UNL1        0.0869
     21 O          22.7006   73.3938    5.4755 O.2     1  UNL1       -0.2464
     22 O          21.1627   74.9847    9.3239 O.2     1  UNL1       -0.2670
     23 H          22.8212   73.9347    7.8492 H       1  UNL1        0.1734
     24 O          22.6778   70.5667   -1.5682 O.3     1  UNL1       -0.2703
     25 P          22.4939   71.8805   -2.4793 P.3     1  UNL1        0.2208
     26 O          22.7274   73.0878   -1.6566 O.2     1  UNL1       -0.5170
     27 O          23.5534   71.8449   -3.6919 O.3     1  UNL1       -0.4371
     28 O          20.9994   71.9168   -3.0752 O.3     1  UNL1       -0.2858
     29 C          21.0637   71.3652   -4.3910 C.3     1  UNL1        0.2704
     30 C          20.5504   72.3937   -5.3999 C.3     1  UNL1        0.1967
     31 C          19.1093   72.7685   -5.0405 C.3     1  UNL1        0.1715
     32 C          18.2795   71.4837   -4.9393 C.3     1  UNL1        0.1694
     33 C          18.9646   70.5243   -3.9630 C.3     1  UNL1        0.1761
     34 O          21.3749   73.5597   -5.3563 O.3     1  UNL1       -0.3775
     35 O          18.5660   73.6152   -6.0556 O.3     1  UNL1       -0.3794
     36 O          18.1834   70.8743   -6.2274 O.3     1  UNL1       -0.3794
     37 O          20.2627   70.1873   -4.4503 O.3     1  UNL1       -0.3258
     38 H          22.2714   73.2761   -5.5814 H       1  UNL1        0.2106
     39 H          19.1242   74.4021   -6.0921 H       1  UNL1        0.2105
     40 H          17.7525   71.5145   -6.8085 H       1  UNL1        0.2105
     41 C          18.1259   69.2514   -3.8284 C.3     1  UNL1        0.1693
     42 O          18.2607   68.7309   -2.5048 O.3     1  UNL1       -0.3794
     43 H          17.7177   67.9318   -2.4616 H       1  UNL1        0.2105
@<TRIPOS>BOND
     1    15    16   ar
     2    15    20   ar
     3    15     6    1
     4    16    17   ar
     5    16    21    2
     6    17    18   ar
     7    17    23    1
     8    18    19   ar
     9    18    22    2
    10    19    20   ar
    11     6     7    1
    12     6    11    1
    13     7     8    1
    14     7     9    1
    15     8    13    1
    16     9    10    1
    17     9    12    1
    18    10    11    1
    19    10     5    1
    20    12    14    1
    21     5     4    1
    22     4     1    1
    23     1     2    2
    24     1     3    1
    25     1    24    1
    26    24    25    1
    27    25    26    2
    28    25    27    1
    29    25    28    1
    30    28    29    1
    31    29    30    1
    32    29    37    1
    33    30    31    1
    34    30    34    1
    35    31    32    1
    36    31    35    1
    37    32    33    1
    38    32    36    1
    39    33    41    1
    40    33    37    1
    41    41    42    1
    42    34    38    1
    43    35    39    1
    44    36    40    1
    45    42    43    1
@<TRIPOS>MOLECULE
GDU
 43 45 0 0 0
SMALL
GASTEIGER

@<TRIPOS>ATOM
      1 P          22.8364   72.1077   -3.5345 P.3     1  UNL1        0.2189
      2 O          23.8372   72.8873   -4.2963 O.2     1  UNL1       -0.5170
      3 O          23.4264   70.6438   -3.2152 O.3     1  UNL1       -0.4371
      4 O          22.5028   72.8644   -2.1551 O.3     1  UNL1       -0.3112
      5 C          22.5545   71.8808   -1.1205 C.3     1  UNL1        0.1811
      6 C          20.8435   72.9040    1.8716 C.3     1  UNL1        0.2383
      7 C          20.6545   74.0893    0.8906 C.3     1  UNL1        0.1895
      8 O          19.4160   74.7603    1.1341 O.3     1  UNL1       -0.3779
      9 C          20.6342   73.3727   -0.4847 C.3     1  UNL1        0.1713
     10 C          21.3300   72.0256   -0.2151 C.3     1  UNL1        0.1764
     11 O          21.7388   72.0204    1.1637 O.3     1  UNL1       -0.3308
     12 O          19.2892   73.1699   -0.9226 O.3     1  UNL1       -0.3794
     13 H          19.3601   75.4835    0.4940 H       1  UNL1        0.2106
     14 H          18.8901   74.0455   -1.0163 H       1  UNL1        0.2105
     15 N          21.4509   73.3594    3.1232 N.ar    1  UNL1       -0.2551
     16 C          20.6662   73.6830    4.1662 C.ar    1  UNL1        0.3323
     17 N          21.1995   74.1010    5.3292 N.ar    1  UNL1       -0.2743
     18 C          22.5351   74.2118    5.4640 C.ar    1  UNL1        0.2626
     19 C          23.3738   73.8799    4.3719 C.ar    1  UNL1        0.0795
     20 C          22.8129   73.4592    3.2182 C.ar    1  UNL1        0.0869
     21 O          19.4597   73.5877    4.0598 O.2     1  UNL1       -0.2464
     22 O          23.0186   74.5946    6.5148 O.2     1  UNL1       -0.2670
     23 H          20.6184   74.3263    6.0730 H       1  UNL1        0.1734
     24 O          21.4915   71.9639   -4.4081 O.3     1  UNL1       -0.2703
     25 P          21.5463   73.1060   -5.5406 P.3     1  UNL1        0.2208
     26 O          21.7067   74.4294   -4.8989 O.2     1  UNL1       -0.5170
     27 O          22.7947   72.8304   -6.5203 O.3     1  UNL1       -0.4371
     28 O          20.1815   73.0838   -6.3932 O.3     1  UNL1       -0.2858
     29 C          19.8436   71.7116   -6.5998 C.3     1  UNL1        0.2704
     30 C          19.8417   71.4078   -8.0988 C.3     1  UNL1        0.1967
     31 C          18.8290   72.3245   -8.7920 C.3     1  UNL1        0.1715
     32 C          17.4728   72.1729   -8.0940 C.3     1  UNL1        0.1694
     33 C          17.6542   72.4209   -6.5945 C.3     1  UNL1        0.1761
     34 O          21.1452   71.6395   -8.6357 O.3     1  UNL1       -0.3775
     35 O          18.7083   71.9537  -10.1669 O.3     1  UNL1       -0.3794
     36 O          16.9703   70.8531   -8.3077 O.3     1  UNL1       -0.3794
     37 O          18.5527   71.4542   -6.0521 O.3     1  UNL1       -0.3258
     38 H          21.7494   71.0481   -8.1665 H       1  UNL1        0.2106
     39 H          19.5840   72.0526  -10.5614 H       1  UNL1        0.2105
     40 H          16.8777   70.7401   -9.2626 H       1  UNL1        0.2105
     41 C          16.2992   72.3056   -5.8926 C.3     1  UNL1        0.1693
     42 O          16.3491   71.2484   -4.9331 O.3     1  UNL1       -0.3794
     43 H          15.4785   71.2096   -4.5138 H       1  UNL1        0.2105
@<TRIPOS>BOND
     1    15    16   ar
     2    15    20   ar
     3    15     6    1
     4    16    17   ar
     5    16    21    2
     6    17    18   ar
     7    17    23    1
     8    18    19   ar
     9    18    22    2
    10    19    20   ar
    11     6     7    1
    12     6    11    1
    13     7     8    1
    14     7     9    1
    15     8    13    1
    16     9    10    1
    17     9    12    1
    18    10    11    1
    19    10     5    1
    20    12    14    1
    21     5     4    1
    22     4     1    1
    23     1     2    2
    24     1     3    1
    25     1    24    1
    26    24    25    1
    27    25    26    2
    28    25    27    1
    29    25    28    1
    30    28    29    1
    31    29    30    1
    32    29    37    1
    33    30    31    1
    34    30    34    1
    35    31    32    1
    36    31    35    1
    37    32    33    1
    38    32    36    1
    39    33    41    1
    40    33    37    1
    41    41    42    1
    42    34    38    1
    43    35    39    1
    44    36    40    1
    45    42    43    1
@<TRIPOS>MOLECULE
GDU
 43 45 0 0 0
SMALL
GASTEIGER

@<TRIPOS>ATOM
      1 P          22.0297   70.7523   -2.7333 P.3     1  UNL1        0.2189
      2 O          21.5288   69.4750   -2.1790 O.2     1  UNL1       -0.5170
      3 O          23.5362   70.5520   -3.2656 O.3     1  UNL1       -0.4371
      4 O          21.0872   71.2154   -3.9515 O.3     1  UNL1       -0.3112
      5 C          20.1152   70.1853   -4.1373 C.3     1  UNL1        0.1811
      6 C          17.6079   72.4282   -5.4066 C.3     1  UNL1        0.2383
      7 C          17.4031   71.1197   -6.2120 C.3     1  UNL1        0.1895
      8 O          16.0309   70.9550   -6.5769 O.3     1  UNL1       -0.3779
      9 C          17.8373   70.0374   -5.1895 C.3     1  UNL1        0.1713
     10 C          18.7168   70.8038   -4.1841 C.3     1  UNL1        0.1764
     11 O          18.8002   72.1665   -4.6362 O.3     1  UNL1       -0.3308
     12 O          16.6946   69.4773   -4.5394 O.3     1  UNL1       -0.3794
     13 H          15.9718   70.1267   -7.0733 H       1  UNL1        0.2106
     14 H          16.1554   69.0642   -5.2274 H       1  UNL1        0.2105
     15 N          17.8146   73.5637   -6.3070 N.ar    1  UNL1       -0.2551
     16 C          18.4623   73.3822   -7.4714 C.ar    1  UNL1        0.3323
     17 N          18.6624   74.4087   -8.3187 N.ar    1  UNL1       -0.2743
     18 C          18.2228   75.6432   -8.0071 C.ar    1  UNL1        0.2626
     19 C          17.5439   75.8504   -6.7814 C.ar    1  UNL1        0.0795
     20 C          17.3530   74.8026   -5.9519 C.ar    1  UNL1        0.0869
     21 O          18.8642   72.2742   -7.7663 O.2     1  UNL1       -0.2464
     22 O          18.4076   76.5740   -8.7713 O.2     1  UNL1       -0.2670
     23 H          19.1281   74.2587   -9.1568 H       1  UNL1        0.1734
     24 O          22.0139   71.8784   -1.5826 O.3     1  UNL1       -0.2703
     25 P          22.2553   71.1199   -0.1840 P.3     1  UNL1        0.2208
     26 O          21.0641   70.3077    0.1485 O.2     1  UNL1       -0.5170
     27 O          23.5415   70.1586   -0.3101 O.3     1  UNL1       -0.4371
     28 O          22.5087   72.2034    0.9787 O.3     1  UNL1       -0.2858
     29 C          21.2358   72.4987    1.5553 C.3     1  UNL1        0.2704
     30 C          20.7730   73.8794    1.0876 C.3     1  UNL1        0.1967
     31 C          21.8126   74.9228    1.5084 C.3     1  UNL1        0.1715
     32 C          22.0551   74.7924    3.0163 C.3     1  UNL1        0.1694
     33 C          22.4230   73.3417    3.3376 C.3     1  UNL1        0.1761
     34 O          20.6381   73.8826   -0.3348 O.3     1  UNL1       -0.3775
     35 O          21.3261   76.2330    1.2095 O.3     1  UNL1       -0.3794
     36 O          20.8698   75.1578    3.7243 O.3     1  UNL1       -0.3794
     37 O          21.3442   72.4803    2.9767 O.3     1  UNL1       -0.3258
     38 H          19.9812   73.2080   -0.5542 H       1  UNL1        0.2106
     39 H          21.1768   76.2653    0.2561 H       1  UNL1        0.2105
     40 H          20.6736   76.0737    3.4878 H       1  UNL1        0.2105
     41 C          22.7008   73.2078    4.8365 C.3     1  UNL1        0.1693
     42 O          21.4939   72.8541    5.5142 O.3     1  UNL1       -0.3794
     43 H          21.7119   72.7791    6.4534 H       1  UNL1        0.2105
@<TRIPOS>BOND
     1    15    16   ar
     2    15    20   ar
     3    15     6    1
     4    16    17   ar
     5    16    21    2
     6    17    18   ar
     7    17    23    1
     8    18    19   ar
     9    18    22    2
    10    19    20   ar
    11     6     7    1
    12     6    11    1
    13     7     8    1
    14     7     9    1
    15     8    13    1
    16     9    10    1
    17     9    12    1
    18    10    11    1
    19    10     5    1
    20    12    14    1
    21     5     4    1
    22     4     1    1
    23     1     2    2
    24     1     3    1
    25     1    24    1
    26    24    25    1
    27    25    26    2
    28    25    27    1
    29    25    28    1
    30    28    29    1
    31    29    30    1
    32    29    37    1
    33    30    31    1
    34    30    34    1
    35    31    32    1
    36    31    35    1
    37    32    33    1
    38    32    36    1
    39    33    41    1
    40    33    37    1
    41    41    42    1
    42    34    38    1
    43    35    39    1
    44    36    40    1
    45    42    43    1
@<TRIPOS>MOLECULE
GDU
 43 45 0 0 0
SMALL
GASTEIGER

@<TRIPOS>ATOM
      1 P          23.3251   73.8620   -3.8410 P.3     1  UNL1        0.2189
      2 O          23.7503   72.6056   -4.4969 O.2     1  UNL1       -0.5170
      3 O          24.4170   74.2867   -2.7363 O.3     1  UNL1       -0.4371
      4 O          23.1961   75.0263   -4.9432 O.3     1  UNL1       -0.3112
      5 C          21.8153   75.1070   -5.3001 C.3     1  UNL1        0.1811
      6 C          19.9356   73.3707   -7.8258 C.3     1  UNL1        0.2383
      7 C          21.2096   73.8633   -8.5587 C.3     1  UNL1        0.1895
      8 O          21.5718   72.9659   -9.6107 O.3     1  UNL1       -0.3779
      9 C          22.2665   73.8407   -7.4239 C.3     1  UNL1        0.1713
     10 C          21.4294   73.8826   -6.1320 C.3     1  UNL1        0.1764
     11 O          20.0466   73.9701   -6.5174 O.3     1  UNL1       -0.3308
     12 O          23.0417   72.6420   -7.4871 O.3     1  UNL1       -0.3794
     13 H          22.3676   73.3282  -10.0246 H       1  UNL1        0.2106
     14 H          23.4947   72.6460   -8.3411 H       1  UNL1        0.2105
     15 N          18.7299   73.8428   -8.5087 N.ar    1  UNL1       -0.2551
     16 C          18.3164   73.2298   -9.6319 C.ar    1  UNL1        0.3323
     17 N          17.2092   73.6418  -10.2771 N.ar    1  UNL1       -0.2743
     18 C          16.4996   74.6872   -9.8104 C.ar    1  UNL1        0.2626
     19 C          16.9266   75.3463   -8.6316 C.ar    1  UNL1        0.0795
     20 C          18.0381   74.9099   -8.0019 C.ar    1  UNL1        0.0869
     21 O          18.9459   72.2850  -10.0646 O.2     1  UNL1       -0.2464
     22 O          15.5001   75.0640  -10.3964 O.2     1  UNL1       -0.2670
     23 H          16.9229   73.1849  -11.0840 H       1  UNL1        0.1734
     24 O          21.8999   73.6376   -3.1263 O.3     1  UNL1       -0.2703
     25 P          21.8512   72.0995   -2.6554 P.3     1  UNL1        0.2208
     26 O          20.8653   71.3632   -3.4771 O.2     1  UNL1       -0.5170
     27 O          23.3067   71.4352   -2.8411 O.3     1  UNL1       -0.4371
     28 O          21.4224   72.0248   -1.1060 O.3     1  UNL1       -0.2858
     29 C          22.6180   71.8120   -0.3543 C.3     1  UNL1        0.2704
     30 C          22.2630   71.2172    1.0094 C.3     1  UNL1        0.1967
     31 C          21.3261   72.1805    1.7447 C.3     1  UNL1        0.1715
     32 C          21.9822   73.5651    1.7878 C.3     1  UNL1        0.1694
     33 C          22.3569   73.9829    0.3637 C.3     1  UNL1        0.1761
     34 O          21.6116   69.9587    0.8277 O.3     1  UNL1       -0.3775
     35 O          21.1029   71.7106    3.0759 O.3     1  UNL1       -0.3794
     36 O          23.1559   73.5126    2.6000 O.3     1  UNL1       -0.3794
     37 O          23.2947   73.0546   -0.1792 O.3     1  UNL1       -0.3258
     38 H          22.2335   69.3882    0.3559 H       1  UNL1        0.2106
     39 H          20.7018   70.8356    3.0003 H       1  UNL1        0.2105
     40 H          22.8734   73.2407    3.4829 H       1  UNL1        0.2105
     41 C          22.9820   75.3795    0.3916 C.3     1  UNL1        0.1693
     42 O          24.3975   75.2701    0.2320 O.3     1  UNL1       -0.3794
     43 H          24.7520   76.1696    0.2543 H       1  UNL1        0.2105
@<TRIPOS>BOND
     1    15    16   ar
     2    15    20   ar
     3    15     6    1
     4    16    17   ar
     5    16    21    2
     6    17    18   ar
     7    17    23    1
     8    18    19   ar
     9    18    22    2
    10    19    20   ar
    11     6     7    1
    12     6    11    1
    13     7     8    1
    14     7     9    1
    15     8    13    1
    16     9    10    1
    17     9    12    1
    18    10    11    1
    19    10     5    1
    20    12    14    1
    21     5     4    1
    22     4     1    1
    23     1     2    2
    24     1     3    1
    25     1    24    1
    26    24    25    1
    27    25    26    2
    28    25    27    1
    29    25    28    1
    30    28    29    1
    31    29    30    1
    32    29    37    1
    33    30    31    1
    34    30    34    1
    35    31    32    1
    36    31    35    1
    37    32    33    1
    38    32    36    1
    39    33    41    1
    40    33    37    1
    41    41    42    1
    42    34    38    1
    43    35    39    1
    44    36    40    1
    45    42    43    1
@<TRIPOS>MOLECULE
GDU
 43 45 0 0 0
SMALL
GASTEIGER

@<TRIPOS>ATOM
      1 P          17.7828   71.1258   -3.4841 P.3     1  UNL1        0.2189
      2 O          18.6897   71.9277   -4.3350 O.2     1  UNL1       -0.5170
      3 O          16.9861   72.1014   -2.4808 O.3     1  UNL1       -0.4371
      4 O          16.7326   70.3373   -4.4125 O.3     1  UNL1       -0.3112
      5 C          17.4679   69.8225   -5.5238 C.3     1  UNL1        0.1811
      6 C          16.0615   72.3509   -7.6584 C.3     1  UNL1        0.2383
      7 C          17.5748   72.3558   -7.9943 C.3     1  UNL1        0.1895
      8 O          17.7932   72.7236   -9.3582 O.3     1  UNL1       -0.3779
      9 C          17.9663   70.8749   -7.7513 C.3     1  UNL1        0.1713
     10 C          16.8565   70.3413   -6.8265 C.3     1  UNL1        0.1764
     11 O          15.9661   71.4354   -6.5465 O.3     1  UNL1       -0.3308
     12 O          17.9876   70.1548   -8.9854 O.3     1  UNL1       -0.3794
     13 H          18.7498   72.7077   -9.5015 H       1  UNL1        0.2106
     14 H          18.6592   70.5723   -9.5416 H       1  UNL1        0.2105
     15 N          15.6138   73.6880   -7.2654 N.ar    1  UNL1       -0.2551
     16 C          14.9996   74.4768   -8.1648 C.ar    1  UNL1        0.3323
     17 N          14.5752   75.7090   -7.8282 N.ar    1  UNL1       -0.2743
     18 C          14.7691   76.1778   -6.5804 C.ar    1  UNL1        0.2626
     19 C          15.4198   75.3603   -5.6242 C.ar    1  UNL1        0.0795
     20 C          15.8316   74.1269   -5.9871 C.ar    1  UNL1        0.0869
     21 O          14.8172   74.0675   -9.2941 O.2     1  UNL1       -0.2464
     22 O          14.3895   77.2948   -6.2762 O.2     1  UNL1       -0.2670
     23 H          14.1299   76.2631   -8.4889 H       1  UNL1        0.1734
     24 O          18.6455   70.0683   -2.6298 O.3     1  UNL1       -0.2703
     25 P          20.1768   70.2285   -3.0982 P.3     1  UNL1        0.2208
     26 O          20.9369   69.0161   -2.7222 O.2     1  UNL1       -0.5170
     27 O          20.2314   70.4214   -4.6963 O.3     1  UNL1       -0.4371
     28 O          20.8266   71.5145   -2.3812 O.3     1  UNL1       -0.2858
     29 C          20.1518   71.6790   -1.1333 C.3     1  UNL1        0.2704
     30 C          20.1311   73.1614   -0.7573 C.3     1  UNL1        0.1967
     31 C          21.5722   73.6724   -0.6644 C.3     1  UNL1        0.1715
     32 C          22.3523   72.7668    0.2954 C.3     1  UNL1        0.1694
     33 C          22.2060   71.3134   -0.1621 C.3     1  UNL1        0.1761
     34 O          19.4238   73.8987   -1.7559 O.3     1  UNL1       -0.3775
     35 O          21.5751   75.0139   -0.1716 O.3     1  UNL1       -0.3794
     36 O          21.8321   72.9113    1.6177 O.3     1  UNL1       -0.3794
     37 O          20.8311   70.9335   -0.1257 O.3     1  UNL1       -0.3258
     38 H          18.5266   73.5394   -1.7847 H       1  UNL1        0.2106
     39 H          21.0651   75.5432   -0.7978 H       1  UNL1        0.2105
     40 H          21.9396   73.8401    1.8608 H       1  UNL1        0.2105
     41 C          23.0097   70.4038    0.7699 C.3     1  UNL1        0.1693
     42 O          22.8851   69.0486    0.3355 O.3     1  UNL1       -0.3794
     43 H          23.4053   68.5096    0.9472 H       1  UNL1        0.2105
@<TRIPOS>BOND
     1    15    16   ar
     2    15    20   ar
     3    15     6    1
     4    16    17   ar
     5    16    21    2
     6    17    18   ar
     7    17    23    1
     8    18    19   ar
     9    18    22    2
    10    19    20   ar
    11     6     7    1
    12     6    11    1
    13     7     8    1
    14     7     9    1
    15     8    13    1
    16     9    10    1
    17     9    12    1
    18    10    11    1
    19    10     5    1
    20    12    14    1
    21     5     4    1
    22     4     1    1
    23     1     2    2
    24     1     3    1
    25     1    24    1
    26    24    25    1
    27    25    26    2
    28    25    27    1
    29    25    28    1
    30    28    29    1
    31    29    30    1
    32    29    37    1
    33    30    31    1
    34    30    34    1
    35    31    32    1
    36    31    35    1
    37    32    33    1
    38    32    36    1
    39    33    41    1
    40    33    37    1
    41    41    42    1
    42    34    38    1
    43    35    39    1
    44    36    40    1
    45    42    43    1
@<TRIPOS>MOLECULE
GDU
 43 45 0 0 0
SMALL
GASTEIGER

@<TRIPOS>ATOM
      1 P          21.0811   70.8308   -2.7862 P.3     1  UNL1        0.2189
      2 O          21.6455   69.5503   -2.3051 O.2     1  UNL1       -0.5170
      3 O          22.2356   71.6870   -3.5120 O.3     1  UNL1       -0.4371
      4 O          19.8944   70.5358   -3.8310 O.3     1  UNL1       -0.3112
      5 C          19.3944   71.8039   -4.2581 C.3     1  UNL1        0.1811
      6 C          16.5450   72.1340   -6.4259 C.3     1  UNL1        0.2383
      7 C          17.0556   70.6911   -6.6714 C.3     1  UNL1        0.1895
      8 O          15.9759   69.8197   -7.0152 O.3     1  UNL1       -0.3779
      9 C          17.6494   70.3169   -5.2884 C.3     1  UNL1        0.1713
     10 C          17.9121   71.6761   -4.6137 C.3     1  UNL1        0.1764
     11 O          17.5450   72.7013   -5.5531 O.3     1  UNL1       -0.3308
     12 O          16.7107   69.5489   -4.5328 O.3     1  UNL1       -0.3794
     13 H          16.3591   68.9424   -7.1545 H       1  UNL1        0.2106
     14 H          16.5428   68.7396   -5.0344 H       1  UNL1        0.2105
     15 N          16.4752   72.8797   -7.6836 N.ar    1  UNL1       -0.2551
     16 C          17.5319   72.8850   -8.5153 C.ar    1  UNL1        0.3323
     17 N          17.4923   73.5597   -9.6794 N.ar    1  UNL1       -0.2743
     18 C          16.3906   74.2523  -10.0267 C.ar    1  UNL1        0.2626
     19 C          15.2720   74.2605   -9.1579 C.ar    1  UNL1        0.0795
     20 C          15.3369   73.5719   -7.9985 C.ar    1  UNL1        0.0869
     21 O          18.5325   72.2644   -8.2157 O.2     1  UNL1       -0.2464
     22 O          16.3556   74.8673  -11.0780 O.2     1  UNL1       -0.2670
     23 H          18.2627   73.5490  -10.2695 H       1  UNL1        0.1734
     24 O          20.5023   71.6643   -1.5361 O.3     1  UNL1       -0.2703
     25 P          21.4755   71.3704   -0.2885 P.3     1  UNL1        0.2208
     26 O          21.2863   69.9753    0.1664 O.2     1  UNL1       -0.5170
     27 O          23.0065   71.5839   -0.7406 O.3     1  UNL1       -0.4371
     28 O          21.1268   72.3804    0.9150 O.3     1  UNL1       -0.2858
     29 C          22.3626   72.9475    1.3520 C.3     1  UNL1        0.2704
     30 C          22.7115   72.4018    2.7376 C.3     1  UNL1        0.1967
     31 C          21.5815   72.7523    3.7106 C.3     1  UNL1        0.1715
     32 C          21.3325   74.2635    3.6485 C.3     1  UNL1        0.1694
     33 C          21.0860   74.6679    2.1929 C.3     1  UNL1        0.1761
     34 O          22.8630   70.9828    2.6689 O.3     1  UNL1       -0.3775
     35 O          21.9579   72.3794    5.0379 O.3     1  UNL1       -0.3794
     36 O          22.4735   74.9570    4.1555 O.3     1  UNL1       -0.3794
     37 O          22.2388   74.3667    1.4078 O.3     1  UNL1       -0.3258
     38 H          23.5778   70.8086    2.0415 H       1  UNL1        0.2106
     39 H          22.1156   71.4269    5.0269 H       1  UNL1        0.2105
     40 H          22.5936   74.6677    5.0694 H       1  UNL1        0.2105
     41 C          20.8022   76.1701    2.1238 C.3     1  UNL1        0.1693
     42 O          22.0099   76.8685    1.8160 O.3     1  UNL1       -0.3794
     43 H          21.7881   77.8092    1.7810 H       1  UNL1        0.2105
@<TRIPOS>BOND
     1    15    16   ar
     2    15    20   ar
     3    15     6    1
     4    16    17   ar
     5    16    21    2
     6    17    18   ar
     7    17    23    1
     8    18    19   ar
     9    18    22    2
    10    19    20   ar
    11     6     7    1
    12     6    11    1
    13     7     8    1
    14     7     9    1
    15     8    13    1
    16     9    10    1
    17     9    12    1
    18    10    11    1
    19    10     5    1
    20    12    14    1
    21     5     4    1
    22     4     1    1
    23     1     2    2
    24     1     3    1
    25     1    24    1
    26    24    25    1
    27    25    26    2
    28    25    27    1
    29    25    28    1
    30    28    29    1
    31    29    30    1
    32    29    37    1
    33    30    31    1
    34    30    34    1
    35    31    32    1
    36    31    35    1
    37    32    33    1
    38    32    36    1
    39    33    41    1
    40    33    37    1
    41    41    42    1
    42    34    38    1
    43    35    39    1
    44    36    40    1
    45    42    43    1
@<TRIPOS>MOLECULE
GDU
 43 45 0 0 0
SMALL
GASTEIGER

@<TRIPOS>ATOM
      1 P          19.1607   71.3438   -2.8960 P.3     1  UNL1        0.2189
      2 O          19.3526   72.0541   -1.6121 O.2     1  UNL1       -0.5170
      3 O          18.6788   69.8347   -2.6075 O.3     1  UNL1       -0.4371
      4 O          18.0456   72.1055   -3.7697 O.3     1  UNL1       -0.3112
      5 C          18.1196   73.4885   -3.4202 C.3     1  UNL1        0.1811
      6 C          18.4688   73.9637   -6.9670 C.3     1  UNL1        0.2383
      7 C          16.9554   74.1605   -6.6952 C.3     1  UNL1        0.1895
      8 O          16.3868   75.0868   -7.6235 O.3     1  UNL1       -0.3779
      9 C          16.9567   74.7467   -5.2593 C.3     1  UNL1        0.1713
     10 C          18.3220   74.3257   -4.6845 C.3     1  UNL1        0.1764
     11 O          18.9885   73.5409   -5.6885 O.3     1  UNL1       -0.3308
     12 O          16.8414   76.1704   -5.3009 O.3     1  UNL1       -0.3794
     13 H          15.4485   75.1639   -7.4012 H       1  UNL1        0.2106
     14 H          15.9952   76.3706   -5.7234 H       1  UNL1        0.2105
     15 N          18.6829   72.9278   -7.9789 N.ar    1  UNL1       -0.2551
     16 C          17.9876   71.7787   -7.9143 C.ar    1  UNL1        0.3323
     17 N          18.1630   70.8117   -8.8341 N.ar    1  UNL1       -0.2743
     18 C          19.0503   70.9771   -9.8339 C.ar    1  UNL1        0.2626
     19 C          19.7940   72.1801   -9.9112 C.ar    1  UNL1        0.0795
     20 C          19.5954   73.1352   -8.9781 C.ar    1  UNL1        0.0869
     21 O          17.1833   71.6153   -7.0185 O.2     1  UNL1       -0.2464
     22 O          19.2132   70.1004  -10.6642 O.2     1  UNL1       -0.2670
     23 H          17.6495   69.9904   -8.7745 H       1  UNL1        0.1734
     24 O          20.5520   71.3158   -3.7058 O.3     1  UNL1       -0.2703
     25 P          21.7051   70.9619   -2.6404 P.3     1  UNL1        0.2208
     26 O          21.6059   69.5349   -2.2623 O.2     1  UNL1       -0.5170
     27 O          23.1480   71.2432   -3.2983 O.3     1  UNL1       -0.4371
     28 O          21.5262   71.8789   -1.3300 O.3     1  UNL1       -0.2858
     29 C          22.6877   71.6803   -0.5229 C.3     1  UNL1        0.2704
     30 C          22.2697   71.1471    0.8484 C.3     1  UNL1        0.1967
     31 C          21.3196   72.1527    1.5059 C.3     1  UNL1        0.1715
     32 C          21.9951   73.5286    1.5194 C.3     1  UNL1        0.1694
     33 C          22.4324   73.8823    0.0958 C.3     1  UNL1        0.1761
     34 O          21.6063   69.8914    0.6917 O.3     1  UNL1       -0.3775
     35 O          21.0365   71.7410    2.8449 O.3     1  UNL1       -0.3794
     36 O          23.1347   73.4930    2.3795 O.3     1  UNL1       -0.3794
     37 O          23.3763   72.9194   -0.3711 O.3     1  UNL1       -0.3258
     38 H          22.2374   69.2934    0.2687 H       1  UNL1        0.2106
     39 H          20.6251   70.8693    2.7887 H       1  UNL1        0.2105
     40 H          22.8132   73.2615    3.2606 H       1  UNL1        0.2105
     41 C          23.0777   75.2700    0.0922 C.3     1  UNL1        0.1693
     42 O          22.4533   76.0872    1.0838 O.3     1  UNL1       -0.3794
     43 H          22.8882   76.9503    1.0495 H       1  UNL1        0.2105
@<TRIPOS>BOND
     1    15    16   ar
     2    15    20   ar
     3    15     6    1
     4    16    17   ar
     5    16    21    2
     6    17    18   ar
     7    17    23    1
     8    18    19   ar
     9    18    22    2
    10    19    20   ar
    11     6     7    1
    12     6    11    1
    13     7     8    1
    14     7     9    1
    15     8    13    1
    16     9    10    1
    17     9    12    1
    18    10    11    1
    19    10     5    1
    20    12    14    1
    21     5     4    1
    22     4     1    1
    23     1     2    2
    24     1     3    1
    25     1    24    1
    26    24    25    1
    27    25    26    2
    28    25    27    1
    29    25    28    1
    30    28    29    1
    31    29    30    1
    32    29    37    1
    33    30    31    1
    34    30    34    1
    35    31    32    1
    36    31    35    1
    37    32    33    1
    38    32    36    1
    39    33    41    1
    40    33    37    1
    41    41    42    1
    42    34    38    1
    43    35    39    1
    44    36    40    1
    45    42    43    1
@<TRIPOS>MOLECULE
GDU
 43 45 0 0 0
SMALL
GASTEIGER

@<TRIPOS>ATOM
      1 P          19.4770   71.0967   -4.0027 P.3     1  UNL1        0.2189
      2 O          18.6389   72.3087   -3.8679 O.2     1  UNL1       -0.5170
      3 O          19.2491   70.1420   -2.7261 O.3     1  UNL1       -0.4371
      4 O          19.0681   70.3073   -5.3430 O.3     1  UNL1       -0.3112
      5 C          17.6691   70.0332   -5.2512 C.3     1  UNL1        0.1811
      6 C          16.0855   72.3745   -7.4734 C.3     1  UNL1        0.2383
      7 C          17.5800   72.3976   -7.8845 C.3     1  UNL1        0.1895
      8 O          17.7211   72.6792   -9.2788 O.3     1  UNL1       -0.3779
      9 C          18.0273   70.9474   -7.5650 C.3     1  UNL1        0.1713
     10 C          16.9801   70.4471   -6.5528 C.3     1  UNL1        0.1764
     11 O          16.0717   71.5331   -6.3006 O.3     1  UNL1       -0.3308
     12 O          18.0108   70.1473   -8.7489 O.3     1  UNL1       -0.3794
     13 H          18.6697   72.6796   -9.4686 H       1  UNL1        0.2106
     14 H          18.6418   70.5446   -9.3643 H       1  UNL1        0.2105
     15 N          15.6172   73.7224   -7.1468 N.ar    1  UNL1       -0.2551
     16 C          14.9698   74.4469   -8.0764 C.ar    1  UNL1        0.3323
     17 N          14.5258   75.6874   -7.8007 N.ar    1  UNL1       -0.2743
     18 C          14.7331   76.2292   -6.5852 C.ar    1  UNL1        0.2626
     19 C          15.4187   75.4799   -5.5979 C.ar    1  UNL1        0.0795
     20 C          15.8495   74.2366   -5.8995 C.ar    1  UNL1        0.0869
     21 O          14.7750   73.9713   -9.1773 O.2     1  UNL1       -0.2464
     22 O          14.3358   77.3538   -6.3362 O.2     1  UNL1       -0.2670
     23 H          14.0567   76.1944   -8.4823 H       1  UNL1        0.1734
     24 O          21.0275   71.5237   -4.0817 O.3     1  UNL1       -0.2703
     25 P          21.7827   70.7629   -2.8813 P.3     1  UNL1        0.2208
     26 O          21.3174   69.3599   -2.8167 O.2     1  UNL1       -0.5170
     27 O          23.3714   70.7892   -3.1451 O.3     1  UNL1       -0.4371
     28 O          21.4589   71.5015   -1.4886 O.3     1  UNL1       -0.2858
     29 C          22.6459   71.4339   -0.6973 C.3     1  UNL1        0.2704
     30 C          22.2872   70.9910    0.7220 C.3     1  UNL1        0.1967
     31 C          21.2943   71.9921    1.3207 C.3     1  UNL1        0.1715
     32 C          21.8897   73.4000    1.2077 C.3     1  UNL1        0.1694
     33 C          22.2770   73.6611   -0.2500 C.3     1  UNL1        0.1761
     34 O          21.6941   69.6918    0.6825 O.3     1  UNL1       -0.3775
     35 O          21.0626   71.6751    2.6949 O.3     1  UNL1       -0.3794
     36 O          23.0467   73.4978    2.0394 O.3     1  UNL1       -0.3794
     37 O          23.2651   72.7176   -0.6619 O.3     1  UNL1       -0.3258
     38 H          22.3498   69.0975    0.2930 H       1  UNL1        0.2106
     39 H          20.7009   70.7802    2.7185 H       1  UNL1        0.2105
     40 H          22.7570   73.3209    2.9439 H       1  UNL1        0.2105
     41 C          22.8413   75.0777   -0.3802 C.3     1  UNL1        0.1693
     42 O          24.2323   75.0672   -0.0549 O.3     1  UNL1       -0.3794
     43 H          24.5488   75.9761   -0.1498 H       1  UNL1        0.2105
@<TRIPOS>BOND
     1    15    16   ar
     2    15    20   ar
     3    15     6    1
     4    16    17   ar
     5    16    21    2
     6    17    18   ar
     7    17    23    1
     8    18    19   ar
     9    18    22    2
    10    19    20   ar
    11     6     7    1
    12     6    11    1
    13     7     8    1
    14     7     9    1
    15     8    13    1
    16     9    10    1
    17     9    12    1
    18    10    11    1
    19    10     5    1
    20    12    14    1
    21     5     4    1
    22     4     1    1
    23     1     2    2
    24     1     3    1
    25     1    24    1
    26    24    25    1
    27    25    26    2
    28    25    27    1
    29    25    28    1
    30    28    29    1
    31    29    30    1
    32    29    37    1
    33    30    31    1
    34    30    34    1
    35    31    32    1
    36    31    35    1
    37    32    33    1
    38    32    36    1
    39    33    41    1
    40    33    37    1
    41    41    42    1
    42    34    38    1
    43    35    39    1
    44    36    40    1
    45    42    43    1
@<TRIPOS>MOLECULE
GDU
 43 45 0 0 0
SMALL
GASTEIGER

@<TRIPOS>ATOM
      1 P          21.5413   70.8918   -0.5818 P.3     1  UNL1        0.2189
      2 O          20.7313   69.7035   -0.9303 O.2     1  UNL1       -0.5170
      3 O          23.0869   70.6101   -0.9352 O.3     1  UNL1       -0.4371
      4 O          21.0216   72.1612   -1.4216 O.3     1  UNL1       -0.3112
      5 C          20.1350   71.6598   -2.4232 C.3     1  UNL1        0.1811
      6 C          20.8454   71.8732   -5.9413 C.3     1  UNL1        0.2383
      7 C          21.7160   72.9842   -5.3005 C.3     1  UNL1        0.1895
      8 O          22.9157   73.1881   -6.0504 O.3     1  UNL1       -0.3779
      9 C          22.0312   72.3855   -3.9049 C.3     1  UNL1        0.1713
     10 C          20.9268   71.3338   -3.6908 C.3     1  UNL1        0.1764
     11 O          20.0578   71.3825   -4.8356 O.3     1  UNL1       -0.3308
     12 O          23.3220   71.7726   -3.9042 O.3     1  UNL1       -0.3794
     13 H          23.4096   73.8883   -5.6014 H       1  UNL1        0.2106
     14 H          23.9629   72.4690   -4.1016 H       1  UNL1        0.2105
     15 N          19.9809   72.4292   -6.9836 N.ar    1  UNL1       -0.2551
     16 C          18.9710   73.2499   -6.6448 C.ar    1  UNL1        0.3323
     17 N          18.1638   73.7773   -7.5840 N.ar    1  UNL1       -0.2743
     18 C          18.3501   73.4816   -8.8848 C.ar    1  UNL1        0.2626
     19 C          19.4064   72.6139   -9.2559 C.ar    1  UNL1        0.0795
     20 C          20.2037   72.1022   -8.2942 C.ar    1  UNL1        0.0869
     21 O          18.7908   73.5262   -5.4755 O.2     1  UNL1       -0.2464
     22 O          17.6170   73.9547   -9.7352 O.2     1  UNL1       -0.2670
     23 H          17.4424   74.3712   -7.3219 H       1  UNL1        0.1734
     24 O          21.3989   71.1939    0.9933 O.3     1  UNL1       -0.2703
     25 P          21.7887   72.7403    1.2089 P.3     1  UNL1        0.2208
     26 O          22.9401   73.0836    0.3455 O.2     1  UNL1       -0.5170
     27 O          20.5317   73.6696    0.8208 O.3     1  UNL1       -0.4371
     28 O          22.1805   72.9863    2.7504 O.3     1  UNL1       -0.2858
     29 C          22.1085   74.3945    2.9773 C.3     1  UNL1        0.2704
     30 C          23.4681   74.9027    3.4596 C.3     1  UNL1        0.1967
     31 C          23.8473   74.1660    4.7479 C.3     1  UNL1        0.1715
     32 C          22.7005   74.3161    5.7539 C.3     1  UNL1        0.1694
     33 C          21.3985   73.8501    5.0977 C.3     1  UNL1        0.1761
     34 O          24.4549   74.6550    2.4566 O.3     1  UNL1       -0.3775
     35 O          25.0423   74.7317    5.2905 O.3     1  UNL1       -0.3794
     36 O          22.5820   75.6853    6.1426 O.3     1  UNL1       -0.3794
     37 O          21.1135   74.6652    3.9618 O.3     1  UNL1       -0.3258
     38 H          24.1723   75.1307    1.6637 H       1  UNL1        0.2106
     39 H          25.7307   74.6261    4.6218 H       1  UNL1        0.2105
     40 H          23.4240   75.9361    6.5443 H       1  UNL1        0.2105
     41 C          20.2524   73.9636    6.1054 C.3     1  UNL1        0.1693
     42 O          19.1393   73.1935    5.6482 O.3     1  UNL1       -0.3794
     43 H          18.4408   73.2910    6.3100 H       1  UNL1        0.2105
@<TRIPOS>BOND
     1    15    16   ar
     2    15    20   ar
     3    15     6    1
     4    16    17   ar
     5    16    21    2
     6    17    18   ar
     7    17    23    1
     8    18    19   ar
     9    18    22    2
    10    19    20   ar
    11     6     7    1
    12     6    11    1
    13     7     8    1
    14     7     9    1
    15     8    13    1
    16     9    10    1
    17     9    12    1
    18    10    11    1
    19    10     5    1
    20    12    14    1
    21     5     4    1
    22     4     1    1
    23     1     2    2
    24     1     3    1
    25     1    24    1
    26    24    25    1
    27    25    26    2
    28    25    27    1
    29    25    28    1
    30    28    29    1
    31    29    30    1
    32    29    37    1
    33    30    31    1
    34    30    34    1
    35    31    32    1
    36    31    35    1
    37    32    33    1
    38    32    36    1
    39    33    41    1
    40    33    37    1
    41    41    42    1
    42    34    38    1
    43    35    39    1
    44    36    40    1
    45    42    43    1
@<TRIPOS>MOLECULE
GDU
 43 45 0 0 0
SMALL
GASTEIGER

@<TRIPOS>ATOM
      1 P          19.6178   69.6806   -3.4639 P.3     1  UNL1        0.2189
      2 O          19.0930   70.6696   -2.4964 O.2     1  UNL1       -0.5170
      3 O          18.8148   68.2942   -3.3029 O.3     1  UNL1       -0.4371
      4 O          19.4282   70.2399   -4.9599 O.3     1  UNL1       -0.3112
      5 C          18.0225   70.2852   -5.2097 C.3     1  UNL1        0.1811
      6 C          18.9242   72.7993   -7.6167 C.3     1  UNL1        0.2383
      7 C          18.8025   71.4942   -8.4442 C.3     1  UNL1        0.1895
      8 O          18.3758   71.7749   -9.7793 O.3     1  UNL1       -0.3779
      9 C          17.7093   70.7168   -7.6660 C.3     1  UNL1        0.1713
     10 C          17.7241   71.3530   -6.2637 C.3     1  UNL1        0.1764
     11 O          18.7595   72.3511   -6.2545 O.3     1  UNL1       -0.3308
     12 O          16.4345   70.8902   -8.2879 O.3     1  UNL1       -0.3794
     13 H          18.3206   70.9254  -10.2388 H       1  UNL1        0.2106
     14 H          16.5065   70.5262   -9.1807 H       1  UNL1        0.2105
     15 N          20.2414   73.4099   -7.8031 N.ar    1  UNL1       -0.2551
     16 C          21.3258   72.6269   -7.9419 C.ar    1  UNL1        0.3323
     17 N          22.5479   73.1630   -8.1181 N.ar    1  UNL1       -0.2743
     18 C          22.7059   74.5003   -8.1483 C.ar    1  UNL1        0.2626
     19 C          21.5734   75.3375   -7.9976 C.ar    1  UNL1        0.0795
     20 C          20.3588   74.7737   -7.8266 C.ar    1  UNL1        0.0869
     21 O          21.1989   71.4189   -7.9172 O.2     1  UNL1       -0.2464
     22 O          23.8123   74.9864   -8.3030 O.2     1  UNL1       -0.2670
     23 H          23.3189   72.5827   -8.2209 H       1  UNL1        0.1734
     24 O          21.1822   69.4294   -3.1777 O.3     1  UNL1       -0.2703
     25 P          21.8612   70.8768   -2.9933 P.3     1  UNL1        0.2208
     26 O          23.3315   70.7485   -3.0970 O.2     1  UNL1       -0.5170
     27 O          21.3272   71.8702   -4.1432 O.3     1  UNL1       -0.4371
     28 O          21.4740   71.4723   -1.5492 O.3     1  UNL1       -0.2858
     29 C          22.6619   71.4445   -0.7568 C.3     1  UNL1        0.2704
     30 C          22.3153   70.9994    0.6648 C.3     1  UNL1        0.1967
     31 C          21.2928   71.9741    1.2571 C.3     1  UNL1        0.1715
     32 C          21.8464   73.3984    1.1362 C.3     1  UNL1        0.1694
     33 C          22.2269   73.6623   -0.3227 C.3     1  UNL1        0.1761
     34 O          21.7610   69.6830    0.6325 O.3     1  UNL1       -0.3775
     35 O          21.0695   71.6584    2.6330 O.3     1  UNL1       -0.3794
     36 O          22.9993   73.5351    1.9681 O.3     1  UNL1       -0.3794
     37 O          23.2428   72.7461   -0.7285 O.3     1  UNL1       -0.3258
     38 H          22.4343   69.1061    0.2469 H       1  UNL1        0.2106
     39 H          20.7345   70.7533    2.6616 H       1  UNL1        0.2105
     40 H          22.7143   73.3550    2.8734 H       1  UNL1        0.2105
     41 C          22.7491   75.0942   -0.4608 C.3     1  UNL1        0.1693
     42 O          23.3154   75.2706   -1.7605 O.3     1  UNL1       -0.3794
     43 H          23.6311   76.1835   -1.8067 H       1  UNL1        0.2105
@<TRIPOS>BOND
     1    15    16   ar
     2    15    20   ar
     3    15     6    1
     4    16    17   ar
     5    16    21    2
     6    17    18   ar
     7    17    23    1
     8    18    19   ar
     9    18    22    2
    10    19    20   ar
    11     6     7    1
    12     6    11    1
    13     7     8    1
    14     7     9    1
    15     8    13    1
    16     9    10    1
    17     9    12    1
    18    10    11    1
    19    10     5    1
    20    12    14    1
    21     5     4    1
    22     4     1    1
    23     1     2    2
    24     1     3    1
    25     1    24    1
    26    24    25    1
    27    25    26    2
    28    25    27    1
    29    25    28    1
    30    28    29    1
    31    29    30    1
    32    29    37    1
    33    30    31    1
    34    30    34    1
    35    31    32    1
    36    31    35    1
    37    32    33    1
    38    32    36    1
    39    33    41    1
    40    33    37    1
    41    41    42    1
    42    34    38    1
    43    35    39    1
    44    36    40    1
    45    42    43    1
