@<TRIPOS>MOLECULE
UD2
 46 48 0 0 0
SMALL
GASTEIGER

@<TRIPOS>ATOM
      1 P          21.1143   71.9567   -2.1189 P.3     1  UNL1        0.2189
      2 O          21.8533   70.6121   -2.6061 O.3     1  UNL1       -0.4371
      3 O          21.6418   73.1126   -2.8769 O.2     1  UNL1       -0.5170
      4 O          19.5305   71.8224   -2.3781 O.3     1  UNL1       -0.3112
      5 C          18.8447   70.5690   -2.3672 C.3     1  UNL1        0.1811
      6 C          17.1205   70.5114   -5.5232 C.3     1  UNL1        0.2383
      7 C          17.0362   69.0527   -5.0064 C.3     1  UNL1        0.1895
      8 O          15.8377   68.4197   -5.4589 O.3     1  UNL1       -0.3779
      9 C          17.0097   69.2525   -3.4713 C.3     1  UNL1        0.1713
     10 C          17.6074   70.6572   -3.2640 C.3     1  UNL1        0.1764
     11 O          17.9764   71.1604   -4.5579 O.3     1  UNL1       -0.3308
     12 O          15.6675   69.2027   -2.9848 O.3     1  UNL1       -0.3794
     13 H          15.7396   67.5049   -5.1619 H       1  UNL1        0.2106
     14 H          15.2223   68.3592   -3.1421 H       1  UNL1        0.2105
     15 N          17.7233   70.5520   -6.8574 N.ar    1  UNL1       -0.2551
     16 C          16.9395   70.4546   -7.9460 C.ar    1  UNL1        0.3323
     17 N          17.4664   70.4887   -9.1843 N.ar    1  UNL1       -0.2743
     18 C          18.7976   70.6240   -9.3520 C.ar    1  UNL1        0.2626
     19 C          19.6344   70.7286   -8.2149 C.ar    1  UNL1        0.0795
     20 C          19.0786   70.6957   -6.9854 C.ar    1  UNL1        0.0869
     21 O          15.7375   70.3324   -7.8098 O.2     1  UNL1       -0.2464
     22 O          19.2757   70.6554  -10.4722 O.2     1  UNL1       -0.2670
     23 H          16.8871   70.4159   -9.9584 H       1  UNL1        0.1734
     24 O          21.3833   72.1776   -0.5466 O.3     1  UNL1       -0.2703
     25 P          22.2205   71.3721    0.5684 P.3     1  UNL1        0.2208
     26 O          21.4729   69.9851    0.9020 O.3     1  UNL1       -0.4371
     27 O          23.5791   71.0887    0.0563 O.2     1  UNL1       -0.5170
     28 O          22.3255   72.2611    1.9068 O.3     1  UNL1       -0.2865
     29 C          22.6451   73.6536    1.8933 C.3     1  UNL1        0.2611
     30 C          23.3337   74.0328    3.2066 C.3     1  UNL1        0.1582
     31 C          22.3666   73.7888    4.3691 C.3     1  UNL1        0.1625
     32 C          21.0862   74.5940    4.1315 C.3     1  UNL1        0.1686
     33 C          20.4840   74.1930    2.7823 C.3     1  UNL1        0.1760
     34 O          22.9751   74.2092    5.5923 O.3     1  UNL1       -0.3801
     35 O          21.3941   75.9891    4.1220 O.3     1  UNL1       -0.3794
     36 O          21.4450   74.4159    1.7485 O.3     1  UNL1       -0.3263
     37 H          22.4176   74.0826    6.3723 H       1  UNL1        0.2105
     38 H          20.6275   76.5608    3.9752 H       1  UNL1        0.2105
     39 C          25.7018   73.5935    2.8368 C.2     1  UNL1        0.2231
     40 C          26.9348   72.7482    3.0209 C.3     1  UNL1        0.0946
     41 N          24.5325   73.2098    3.3859 N.am    1  UNL1       -0.2994
     42 O          25.7609   74.6208    2.1938 O.2     1  UNL1       -0.2751
     43 H          24.4846   72.3881    3.8992 H       1  UNL1        0.1496
     44 C          19.2367   75.0359    2.5100 C.3     1  UNL1        0.1693
     45 O          18.1943   74.6492    3.4078 O.3     1  UNL1       -0.3794
     46 H          17.3712   75.1434    3.2920 H       1  UNL1        0.2105
@<TRIPOS>BOND
     1    29    30    1
     2    30    41    1
     3    30    31    1
     4    31    34    1
     5    31    32    1
     6    32    35    1
     7    32    33    1
     8    33    36    1
     9    33    44    1
    10    39    40    1
    11    39    42    2
    12    39    41   am
    13    41    43    1
    14    29    28    1
    15    34    37    1
    16    35    38    1
    17    29    36    1
    18    44    45    1
    19    45    46    1
    20    15     6    1
    21    15    16   ar
    22    16    21    2
    23    16    17   ar
    24    17    23    1
    25    17    18   ar
    26    18    19   ar
    27    19    20   ar
    28    15    20   ar
    29    18    22    2
    30     6     7    1
    31     6    11    1
    32     7     9    1
    33     7     8    1
    34     8    13    1
    35     9    10    1
    36     9    12    1
    37    10     5    1
    38    10    11    1
    39    12    14    1
    40     5     4    1
    41     4     1    1
    42     1     2    1
    43     1    24    1
    44     1     3    2
    45    24    25    1
    46    28    25    1
    47    25    26    1
    48    25    27    2
@<TRIPOS>MOLECULE
UD2
 46 48 0 0 0
SMALL
GASTEIGER

@<TRIPOS>ATOM
      1 P          20.7534   71.0892   -3.2006 P.3     1  UNL1        0.2189
      2 O          21.0081   70.5166   -1.7178 O.3     1  UNL1       -0.4371
      3 O          20.8167   69.9790   -4.1765 O.2     1  UNL1       -0.5170
      4 O          19.2999   71.7797   -3.2667 O.3     1  UNL1       -0.3112
      5 C          18.1621   71.2637   -2.5734 C.3     1  UNL1        0.1811
      6 C          16.7858   70.5602   -5.8211 C.3     1  UNL1        0.2383
      7 C          16.8928   69.1747   -5.1347 C.3     1  UNL1        0.1895
      8 O          15.8644   68.2963   -5.5958 O.3     1  UNL1       -0.3779
      9 C          16.6847   69.5338   -3.6430 C.3     1  UNL1        0.1713
     10 C          17.0202   71.0355   -3.5669 C.3     1  UNL1        0.1764
     11 O          17.4255   71.4505   -4.8810 O.3     1  UNL1       -0.3308
     12 O          15.3281   69.3038   -3.2590 O.3     1  UNL1       -0.3794
     13 H          15.8896   67.4165   -5.1957 H       1  UNL1        0.2106
     14 H          15.0451   68.3834   -3.3439 H       1  UNL1        0.2105
     15 N          17.5005   70.5590   -7.0995 N.ar    1  UNL1       -0.2551
     16 C          16.8061   70.5747   -8.2512 C.ar    1  UNL1        0.3323
     17 N          17.4367   70.5739   -9.4405 N.ar    1  UNL1       -0.2743
     18 C          18.7841   70.5591   -9.4942 C.ar    1  UNL1        0.2626
     19 C          19.5277   70.5435   -8.2896 C.ar    1  UNL1        0.0795
     20 C          18.8693   70.5490   -7.1115 C.ar    1  UNL1        0.0869
     21 O          15.5907   70.5884   -8.2178 O.2     1  UNL1       -0.2464
     22 O          19.3562   70.5587  -10.5700 O.2     1  UNL1       -0.2670
     23 H          16.9208   70.5841  -10.2613 H       1  UNL1        0.1734
     24 O          21.8822   72.1814   -3.5557 O.3     1  UNL1       -0.2703
     25 P          23.4696   72.2717   -3.3011 P.3     1  UNL1        0.2208
     26 O          24.0466   70.8014   -2.9861 O.3     1  UNL1       -0.4371
     27 O          24.1330   72.8133   -4.5073 O.2     1  UNL1       -0.5170
     28 O          23.7579   73.2415   -2.0484 O.3     1  UNL1       -0.2865
     29 C          22.7968   73.4936   -1.0218 C.3     1  UNL1        0.2611
     30 C          23.1079   74.8320   -0.3478 C.3     1  UNL1        0.1582
     31 C          24.4864   74.7517    0.3153 C.3     1  UNL1        0.1625
     32 C          24.4965   73.5859    1.3077 C.3     1  UNL1        0.1686
     33 C          24.1319   72.2951    0.5696 C.3     1  UNL1        0.1760
     34 O          24.7538   75.9723    1.0096 O.3     1  UNL1       -0.3801
     35 O          23.5422   73.8310    2.3423 O.3     1  UNL1       -0.3794
     36 O          22.8532   72.4474   -0.0498 O.3     1  UNL1       -0.3263
     37 H          25.6128   75.9917    1.4535 H       1  UNL1        0.2105
     38 H          23.4941   73.1305    3.0080 H       1  UNL1        0.2105
     39 C          22.5463   77.0895   -1.0733 C.2     1  UNL1        0.2231
     40 C          22.5477   78.1855   -2.1064 C.3     1  UNL1        0.0946
     41 N          23.1095   75.8976   -1.3533 N.am    1  UNL1       -0.2994
     42 O          22.0378   77.2792    0.0119 O.2     1  UNL1       -0.2751
     43 H          23.5152   75.7451   -2.2211 H       1  UNL1        0.1496
     44 C          24.0814   71.1351    1.5658 C.3     1  UNL1        0.1693
     45 O          22.7391   70.9566    2.0227 O.3     1  UNL1       -0.3794
     46 H          22.6320   70.2362    2.6587 H       1  UNL1        0.2105
@<TRIPOS>BOND
     1    29    30    1
     2    30    41    1
     3    30    31    1
     4    31    34    1
     5    31    32    1
     6    32    35    1
     7    32    33    1
     8    33    36    1
     9    33    44    1
    10    39    40    1
    11    39    42    2
    12    39    41   am
    13    41    43    1
    14    29    28    1
    15    34    37    1
    16    35    38    1
    17    29    36    1
    18    44    45    1
    19    45    46    1
    20    15     6    1
    21    15    16   ar
    22    16    21    2
    23    16    17   ar
    24    17    23    1
    25    17    18   ar
    26    18    19   ar
    27    19    20   ar
    28    15    20   ar
    29    18    22    2
    30     6     7    1
    31     6    11    1
    32     7     9    1
    33     7     8    1
    34     8    13    1
    35     9    10    1
    36     9    12    1
    37    10     5    1
    38    10    11    1
    39    12    14    1
    40     5     4    1
    41     4     1    1
    42     1     2    1
    43     1    24    1
    44     1     3    2
    45    24    25    1
    46    28    25    1
    47    25    26    1
    48    25    27    2
@<TRIPOS>MOLECULE
UD2
 46 48 0 0 0
SMALL
GASTEIGER

@<TRIPOS>ATOM
      1 P          21.7684   72.5276   -6.0104 P.3     1  UNL1        0.2189
      2 O          23.0274   73.1992   -6.7555 O.3     1  UNL1       -0.4371
      3 O          20.6738   73.5170   -5.9009 O.2     1  UNL1       -0.5170
      4 O          21.2596   71.2558   -6.8574 O.3     1  UNL1       -0.3112
      5 C          20.5750   71.3769   -8.1056 C.3     1  UNL1        0.1811
      6 C          17.4049   70.1705   -6.9090 C.3     1  UNL1        0.2383
      7 C          17.0410   71.1755   -8.0314 C.3     1  UNL1        0.1895
      8 O          15.8262   70.7964   -8.6812 O.3     1  UNL1       -0.3779
      9 C          18.2472   71.0401   -8.9928 C.3     1  UNL1        0.1713
     10 C          19.3630   70.4420   -8.1150 C.3     1  UNL1        0.1764
     11 O          18.8369   70.3105   -6.7849 O.3     1  UNL1       -0.3308
     12 O          17.9299   70.1570  -10.0700 O.3     1  UNL1       -0.3794
     13 H          15.5562   71.3947   -9.3910 H       1  UNL1        0.2106
     14 H          17.1941   70.4560  -10.6210 H       1  UNL1        0.2105
     15 N          16.7400   70.5341   -5.6557 N.ar    1  UNL1       -0.2551
     16 C          16.4681   69.5824   -4.7452 C.ar    1  UNL1        0.3323
     17 N          15.8577   69.8878   -3.5848 N.ar    1  UNL1       -0.2743
     18 C          15.5093   71.1626   -3.3163 C.ar    1  UNL1        0.2626
     19 C          15.7904   72.1747   -4.2654 C.ar    1  UNL1        0.0795
     20 C          16.4071   71.8406   -5.4185 C.ar    1  UNL1        0.0869
     21 O          16.7768   68.4288   -4.9738 O.2     1  UNL1       -0.2464
     22 O          14.9572   71.4405   -2.2663 O.2     1  UNL1       -0.2670
     23 H          15.6680   69.1892   -2.9398 H       1  UNL1        0.1734
     24 O          22.2089   72.0489   -4.5373 O.3     1  UNL1       -0.2703
     25 P          23.3496   72.5206   -3.5032 P.3     1  UNL1        0.2208
     26 O          23.6668   71.3243   -2.4725 O.3     1  UNL1       -0.4371
     27 O          24.5792   72.8673   -4.2490 O.2     1  UNL1       -0.5170
     28 O          22.8345   73.8098   -2.6875 O.3     1  UNL1       -0.2865
     29 C          21.9273   73.7235   -1.5872 C.3     1  UNL1        0.2611
     30 C          22.5787   72.9356   -0.4481 C.3     1  UNL1        0.1582
     31 C          22.8678   71.5091   -0.9255 C.3     1  UNL1        0.1625
     32 C          21.5620   70.8674   -1.4026 C.3     1  UNL1        0.1686
     33 C          20.9497   71.7352   -2.5052 C.3     1  UNL1        0.1760
     34 O          23.4089   70.7449    0.1545 O.3     1  UNL1       -0.3801
     35 O          20.6493   70.7711   -0.3076 O.3     1  UNL1       -0.3794
     36 O          20.7345   73.0564   -2.0051 O.3     1  UNL1       -0.3263
     37 H          23.6168   69.8294   -0.0775 H       1  UNL1        0.2105
     38 H          19.7980   70.3734   -0.5381 H       1  UNL1        0.2105
     39 C          23.8898   74.3181    1.0710 C.2     1  UNL1        0.2231
     40 C          25.1787   74.9860    1.4723 C.3     1  UNL1        0.0946
     41 N          23.8328   73.5852   -0.0585 N.am    1  UNL1       -0.2994
     42 O          22.9017   74.4396    1.7647 O.2     1  UNL1       -0.2751
     43 H          24.6222   73.4886   -0.6139 H       1  UNL1        0.1496
     44 C          19.6144   71.1325   -2.9458 C.3     1  UNL1        0.1693
     45 O          18.5757   71.5867   -2.0757 O.3     1  UNL1       -0.3794
     46 H          17.6990   71.2433   -2.2961 H       1  UNL1        0.2105
@<TRIPOS>BOND
     1    29    30    1
     2    30    41    1
     3    30    31    1
     4    31    34    1
     5    31    32    1
     6    32    35    1
     7    32    33    1
     8    33    36    1
     9    33    44    1
    10    39    40    1
    11    39    42    2
    12    39    41   am
    13    41    43    1
    14    29    28    1
    15    34    37    1
    16    35    38    1
    17    29    36    1
    18    44    45    1
    19    45    46    1
    20    15     6    1
    21    15    16   ar
    22    16    21    2
    23    16    17   ar
    24    17    23    1
    25    17    18   ar
    26    18    19   ar
    27    19    20   ar
    28    15    20   ar
    29    18    22    2
    30     6     7    1
    31     6    11    1
    32     7     9    1
    33     7     8    1
    34     8    13    1
    35     9    10    1
    36     9    12    1
    37    10     5    1
    38    10    11    1
    39    12    14    1
    40     5     4    1
    41     4     1    1
    42     1     2    1
    43     1    24    1
    44     1     3    2
    45    24    25    1
    46    28    25    1
    47    25    26    1
    48    25    27    2
@<TRIPOS>MOLECULE
UD2
 46 48 0 0 0
SMALL
GASTEIGER

@<TRIPOS>ATOM
      1 P          20.5897   71.3368   -0.8650 P.3     1  UNL1        0.2189
      2 O          20.3791   72.9266   -0.7261 O.3     1  UNL1       -0.4371
      3 O          20.8803   70.7589    0.4656 O.2     1  UNL1       -0.5170
      4 O          19.2507   70.6681   -1.4597 O.3     1  UNL1       -0.3112
      5 C          19.2320   69.9117   -2.6717 C.3     1  UNL1        0.1811
      6 C          17.3723   70.3721   -5.7157 C.3     1  UNL1        0.2383
      7 C          17.0398   68.9251   -5.2710 C.3     1  UNL1        0.1895
      8 O          15.7222   68.5552   -5.6819 O.3     1  UNL1       -0.3779
      9 C          17.1284   69.0303   -3.7288 C.3     1  UNL1        0.1713
     10 C          17.9904   70.2839   -3.4858 C.3     1  UNL1        0.1764
     11 O          18.3826   70.7893   -4.7719 O.3     1  UNL1       -0.3308
     12 O          15.8270   69.2006   -3.1648 O.3     1  UNL1       -0.3794
     13 H          15.4679   67.6579   -5.4273 H       1  UNL1        0.2106
     14 H          15.2231   68.4659   -3.3382 H       1  UNL1        0.2105
     15 N          17.9044   70.3830   -7.0802 N.ar    1  UNL1       -0.2551
     16 C          17.0598   70.4580   -8.1242 C.ar    1  UNL1        0.3323
     17 N          17.5210   70.4696   -9.3889 N.ar    1  UNL1       -0.2743
     18 C          18.8466   70.4077   -9.6285 C.ar    1  UNL1        0.2626
     19 C          19.7471   70.3295   -8.5389 C.ar    1  UNL1        0.0795
     20 C          19.2572   70.3238   -7.2813 C.ar    1  UNL1        0.0869
     21 O          15.8620   70.5147   -7.9230 O.2     1  UNL1       -0.2464
     22 O          19.2653   70.4185  -10.7727 O.2     1  UNL1       -0.2670
     23 H          16.8982   70.5229  -10.1301 H       1  UNL1        0.1734
     24 O          21.8223   71.0432   -1.8588 O.3     1  UNL1       -0.2703
     25 P          23.3469   71.5565   -1.9309 P.3     1  UNL1        0.2208
     26 O          24.0145   71.4612   -0.4684 O.3     1  UNL1       -0.4371
     27 O          24.1083   70.7108   -2.8761 O.2     1  UNL1       -0.5170
     28 O          23.3750   73.0853   -2.4355 O.3     1  UNL1       -0.2865
     29 C          24.2135   73.5385   -3.4999 C.3     1  UNL1        0.2611
     30 C          24.0692   75.0544   -3.6543 C.3     1  UNL1        0.1582
     31 C          22.6214   75.3852   -4.0297 C.3     1  UNL1        0.1625
     32 C          22.2533   74.6335   -5.3118 C.3     1  UNL1        0.1686
     33 C          22.4675   73.1333   -5.0933 C.3     1  UNL1        0.1760
     34 O          22.4946   76.7922   -4.2479 O.3     1  UNL1       -0.3801
     35 O          23.0827   75.0837   -6.3844 O.3     1  UNL1       -0.3794
     36 O          23.8258   72.8977   -4.7170 O.3     1  UNL1       -0.3263
     37 H          21.6013   77.0734   -4.4890 H       1  UNL1        0.2105
     38 H          22.9046   74.6483   -7.2298 H       1  UNL1        0.2105
     39 C          25.3859   76.6371   -2.3509 C.2     1  UNL1        0.2231
     40 C          25.7356   77.3114   -1.0503 C.3     1  UNL1        0.0946
     41 N          24.4089   75.7097   -2.3888 N.am    1  UNL1       -0.2994
     42 O          25.9841   76.9286   -3.3655 O.2     1  UNL1       -0.2751
     43 H          23.9310   75.4757   -1.5776 H       1  UNL1        0.1496
     44 C          22.1589   72.3803   -6.3888 C.3     1  UNL1        0.1693
     45 O          23.2694   72.4914   -7.2813 O.3     1  UNL1       -0.3794
     46 H          23.1434   72.0366   -8.1253 H       1  UNL1        0.2105
@<TRIPOS>BOND
     1    29    30    1
     2    30    41    1
     3    30    31    1
     4    31    34    1
     5    31    32    1
     6    32    35    1
     7    32    33    1
     8    33    36    1
     9    33    44    1
    10    39    40    1
    11    39    42    2
    12    39    41   am
    13    41    43    1
    14    29    28    1
    15    34    37    1
    16    35    38    1
    17    29    36    1
    18    44    45    1
    19    45    46    1
    20    15     6    1
    21    15    16   ar
    22    16    21    2
    23    16    17   ar
    24    17    23    1
    25    17    18   ar
    26    18    19   ar
    27    19    20   ar
    28    15    20   ar
    29    18    22    2
    30     6     7    1
    31     6    11    1
    32     7     9    1
    33     7     8    1
    34     8    13    1
    35     9    10    1
    36     9    12    1
    37    10     5    1
    38    10    11    1
    39    12    14    1
    40     5     4    1
    41     4     1    1
    42     1     2    1
    43     1    24    1
    44     1     3    2
    45    24    25    1
    46    28    25    1
    47    25    26    1
    48    25    27    2
@<TRIPOS>MOLECULE
UD2
 46 48 0 0 0
SMALL
GASTEIGER

@<TRIPOS>ATOM
      1 P          23.1090   73.4267   -4.3701 P.3     1  UNL1        0.2189
      2 O          23.3381   74.5292   -5.5204 O.3     1  UNL1       -0.4371
      3 O          24.3812   72.7203   -4.1026 O.2     1  UNL1       -0.5170
      4 O          22.6049   74.1528   -3.0238 O.3     1  UNL1       -0.3112
      5 C          21.5719   73.6194   -2.1933 C.3     1  UNL1        0.1811
      6 C          23.3766   71.6470    0.2128 C.3     1  UNL1        0.2383
      7 C          21.9547   71.7889    0.8130 C.3     1  UNL1        0.1895
      8 O          21.6149   70.6429    1.5960 O.3     1  UNL1       -0.3779
      9 C          21.0724   71.8719   -0.4566 C.3     1  UNL1        0.1713
     10 C          22.0489   72.3072   -1.5659 C.3     1  UNL1        0.1764
     11 O          23.3345   72.4971   -0.9539 O.3     1  UNL1       -0.3308
     12 O          20.5103   70.5936   -0.7579 O.3     1  UNL1       -0.3794
     13 H          20.7345   70.6847    1.9933 H       1  UNL1        0.2106
     14 H          19.9329   70.2439   -0.0659 H       1  UNL1        0.2105
     15 N          24.3866   72.1215    1.1613 N.ar    1  UNL1       -0.2551
     16 C          25.0878   71.2333    1.8880 C.ar    1  UNL1        0.3323
     17 N          26.0220   71.6411    2.7673 N.ar    1  UNL1       -0.2743
     18 C          26.2711   72.9562    2.9318 C.ar    1  UNL1        0.2626
     19 C          25.5411   73.9022    2.1726 C.ar    1  UNL1        0.0795
     20 C          24.6134   73.4649    1.2953 C.ar    1  UNL1        0.0869
     21 O          24.8739   70.0443    1.7500 O.2     1  UNL1       -0.2464
     22 O          27.1166   73.3267    3.7270 O.2     1  UNL1       -0.2670
     23 H          26.5176   70.9874    3.2842 H       1  UNL1        0.1734
     24 O          21.9980   72.3669   -4.8556 O.3     1  UNL1       -0.2703
     25 P          20.8037   72.4147   -5.9346 P.3     1  UNL1        0.2208
     26 O          20.4988   73.9460   -6.3294 O.3     1  UNL1       -0.4371
     27 O          21.2020   71.6637   -7.1453 O.2     1  UNL1       -0.5170
     28 O          19.4812   71.7498   -5.3010 O.3     1  UNL1       -0.2865
     29 C          19.1330   70.3771   -5.4900 C.3     1  UNL1        0.2611
     30 C          17.9915   70.2742   -6.5044 C.3     1  UNL1        0.1582
     31 C          16.7592   70.9943   -5.9481 C.3     1  UNL1        0.1625
     32 C          16.3902   70.3805   -4.5948 C.3     1  UNL1        0.1686
     33 C          17.5938   70.4793   -3.6538 C.3     1  UNL1        0.1760
     34 O          15.6661   70.8405   -6.8563 O.3     1  UNL1       -0.3801
     35 O          16.0345   69.0084   -4.7737 O.3     1  UNL1       -0.3794
     36 O          18.7137   69.8165   -4.2441 O.3     1  UNL1       -0.3263
     37 H          14.8511   71.2732   -6.5670 H       1  UNL1        0.2105
     38 H          15.7892   68.5549   -3.9550 H       1  UNL1        0.2105
     39 C          18.5688   70.1486   -8.8685 C.2     1  UNL1        0.2231
     40 C          18.9868   70.7933  -10.1640 C.3     1  UNL1        0.0946
     41 N          18.3983   70.9020   -7.7642 N.am    1  UNL1       -0.2994
     42 O          18.3854   68.9503   -8.8185 O.2     1  UNL1       -0.2751
     43 H          18.5457   71.8600   -7.8034 H       1  UNL1        0.1496
     44 C          17.2529   69.8146   -2.3187 C.3     1  UNL1        0.1693
     45 O          17.4143   68.3994   -2.4354 O.3     1  UNL1       -0.3794
     46 H          17.2146   67.9120   -1.6245 H       1  UNL1        0.2105
@<TRIPOS>BOND
     1    29    30    1
     2    30    41    1
     3    30    31    1
     4    31    34    1
     5    31    32    1
     6    32    35    1
     7    32    33    1
     8    33    36    1
     9    33    44    1
    10    39    40    1
    11    39    42    2
    12    39    41   am
    13    41    43    1
    14    29    28    1
    15    34    37    1
    16    35    38    1
    17    29    36    1
    18    44    45    1
    19    45    46    1
    20    15     6    1
    21    15    16   ar
    22    16    21    2
    23    16    17   ar
    24    17    23    1
    25    17    18   ar
    26    18    19   ar
    27    19    20   ar
    28    15    20   ar
    29    18    22    2
    30     6     7    1
    31     6    11    1
    32     7     9    1
    33     7     8    1
    34     8    13    1
    35     9    10    1
    36     9    12    1
    37    10     5    1
    38    10    11    1
    39    12    14    1
    40     5     4    1
    41     4     1    1
    42     1     2    1
    43     1    24    1
    44     1     3    2
    45    24    25    1
    46    28    25    1
    47    25    26    1
    48    25    27    2
@<TRIPOS>MOLECULE
UD2
 46 48 0 0 0
SMALL
GASTEIGER

@<TRIPOS>ATOM
      1 P          23.0674   72.0799   -2.4210 P.3     1  UNL1        0.2189
      2 O          24.1359   70.9918   -2.9365 O.3     1  UNL1       -0.4371
      3 O          23.7706   73.3308   -2.0612 O.2     1  UNL1       -0.5170
      4 O          22.0014   72.3806   -3.5901 O.3     1  UNL1       -0.3112
      5 C          21.0231   73.4183   -3.5018 C.3     1  UNL1        0.1811
      6 C          18.6371   71.6985   -5.5721 C.3     1  UNL1        0.2383
      7 C          19.2329   70.5932   -4.6636 C.3     1  UNL1        0.1895
      8 O          18.2701   69.5687   -4.4084 O.3     1  UNL1       -0.3779
      9 C          19.5611   71.3776   -3.3696 C.3     1  UNL1        0.1713
     10 C          19.6418   72.8457   -3.8294 C.3     1  UNL1        0.1764
     11 O          19.4308   72.8613   -5.2503 O.3     1  UNL1       -0.3308
     12 O          18.5185   71.2110   -2.4073 O.3     1  UNL1       -0.3794
     13 H          18.5959   68.8540   -3.8448 H       1  UNL1        0.2106
     14 H          18.3840   70.2959   -2.1263 H       1  UNL1        0.2105
     15 N          18.7905   71.3435   -6.9847 N.ar    1  UNL1       -0.2551
     16 C          19.9184   71.6771   -7.6369 C.ar    1  UNL1        0.3323
     17 N          20.0863   71.3637   -8.9353 N.ar    1  UNL1       -0.2743
     18 C          19.1193   70.7041   -9.6049 C.ar    1  UNL1        0.2626
     19 C          17.9273   70.3458   -8.9304 C.ar    1  UNL1        0.0795
     20 C          17.7876   70.6690   -7.6275 C.ar    1  UNL1        0.0869
     21 O          20.7988   72.2718   -7.0457 O.2     1  UNL1       -0.2464
     22 O          19.2703   70.4194  -10.7799 O.2     1  UNL1       -0.2670
     23 H          20.9052   71.6128   -9.3908 H       1  UNL1        0.1734
     24 O          22.2974   71.5058   -1.1284 O.3     1  UNL1       -0.2703
     25 P          22.7388   71.1932    0.3883 P.3     1  UNL1        0.2208
     26 O          21.9239   69.9145    0.9312 O.3     1  UNL1       -0.4371
     27 O          24.1896   70.9075    0.4313 O.2     1  UNL1       -0.5170
     28 O          22.4150   72.4694    1.3152 O.3     1  UNL1       -0.2865
     29 C          23.0821   73.7247    1.1722 C.3     1  UNL1        0.2611
     30 C          23.9039   74.0133    2.4308 C.3     1  UNL1        0.1582
     31 C          22.9601   74.1224    3.6324 C.3     1  UNL1        0.1625
     32 C          21.9214   75.2125    3.3548 C.3     1  UNL1        0.1686
     33 C          21.1758   74.8776    2.0603 C.3     1  UNL1        0.1760
     34 O          23.7112   74.4644    4.7996 O.3     1  UNL1       -0.3801
     35 O          22.5782   76.4737    3.2157 O.3     1  UNL1       -0.3794
     36 O          22.1141   74.7600    0.9889 O.3     1  UNL1       -0.3263
     37 H          23.1758   74.5495    5.6003 H       1  UNL1        0.2105
     38 H          21.9793   77.2122    3.0372 H       1  UNL1        0.2105
     39 C          26.1673   73.1942    2.8096 C.2     1  UNL1        0.2231
     40 C          27.1473   72.0737    3.0392 C.3     1  UNL1        0.0946
     41 N          24.8565   72.9228    2.6538 N.am    1  UNL1       -0.2994
     42 O          26.5578   74.3421    2.7647 O.2     1  UNL1       -0.2751
     43 H          24.5441   72.0051    2.6886 H       1  UNL1        0.1496
     44 C          20.1773   75.9926    1.7440 C.3     1  UNL1        0.1693
     45 O          20.8560   77.0720    1.0986 O.3     1  UNL1       -0.3794
     46 H          20.2831   77.8162    0.8684 H       1  UNL1        0.2105
@<TRIPOS>BOND
     1    29    30    1
     2    30    41    1
     3    30    31    1
     4    31    34    1
     5    31    32    1
     6    32    35    1
     7    32    33    1
     8    33    36    1
     9    33    44    1
    10    39    40    1
    11    39    42    2
    12    39    41   am
    13    41    43    1
    14    29    28    1
    15    34    37    1
    16    35    38    1
    17    29    36    1
    18    44    45    1
    19    45    46    1
    20    15     6    1
    21    15    16   ar
    22    16    21    2
    23    16    17   ar
    24    17    23    1
    25    17    18   ar
    26    18    19   ar
    27    19    20   ar
    28    15    20   ar
    29    18    22    2
    30     6     7    1
    31     6    11    1
    32     7     9    1
    33     7     8    1
    34     8    13    1
    35     9    10    1
    36     9    12    1
    37    10     5    1
    38    10    11    1
    39    12    14    1
    40     5     4    1
    41     4     1    1
    42     1     2    1
    43     1    24    1
    44     1     3    2
    45    24    25    1
    46    28    25    1
    47    25    26    1
    48    25    27    2
@<TRIPOS>MOLECULE
UD2
 46 48 0 0 0
SMALL
GASTEIGER

@<TRIPOS>ATOM
      1 P          20.6991   70.9759   -3.6701 P.3     1  UNL1        0.2189
      2 O          20.3418   69.4456   -4.0194 O.3     1  UNL1       -0.4371
      3 O          21.3504   71.6099   -4.8375 O.2     1  UNL1       -0.5170
      4 O          19.3471   71.7739   -3.3108 O.3     1  UNL1       -0.3112
      5 C          18.2435   71.1683   -2.6350 C.3     1  UNL1        0.1811
      6 C          16.8231   70.5150   -5.8743 C.3     1  UNL1        0.2383
      7 C          16.9026   69.1237   -5.1958 C.3     1  UNL1        0.1895
      8 O          15.8496   68.2727   -5.6524 O.3     1  UNL1       -0.3779
      9 C          16.7159   69.4799   -3.7006 C.3     1  UNL1        0.1713
     10 C          17.0880   70.9727   -3.6198 C.3     1  UNL1        0.1764
     11 O          17.4919   71.3848   -4.9353 O.3     1  UNL1       -0.3308
     12 O          15.3575   69.2805   -3.3061 O.3     1  UNL1       -0.3794
     13 H          15.8571   67.3905   -5.2570 H       1  UNL1        0.2106
     14 H          15.0518   68.3676   -3.3932 H       1  UNL1        0.2105
     15 N          17.5267   70.5034   -7.1587 N.ar    1  UNL1       -0.2551
     16 C          16.8225   70.5197   -8.3044 C.ar    1  UNL1        0.3323
     17 N          17.4429   70.5095   -9.4991 N.ar    1  UNL1       -0.2743
     18 C          18.7896   70.4843   -9.5644 C.ar    1  UNL1        0.2626
     19 C          19.5434   70.4680   -8.3662 C.ar    1  UNL1        0.0795
     20 C          18.8953   70.4831   -7.1825 C.ar    1  UNL1        0.0869
     21 O          15.6076   70.5426   -8.2607 O.2     1  UNL1       -0.2464
     22 O          19.3523   70.4754  -10.6451 O.2     1  UNL1       -0.2670
     23 H          16.9199   70.5203  -10.3156 H       1  UNL1        0.1734
     24 O          21.6986   71.0194   -2.4082 O.3     1  UNL1       -0.2703
     25 P          23.0654   71.8096   -2.0915 P.3     1  UNL1        0.2208
     26 O          24.3208   70.9247   -2.5758 O.3     1  UNL1       -0.4371
     27 O          23.0666   73.1019   -2.8114 O.2     1  UNL1       -0.5170
     28 O          23.1759   72.0770   -0.5075 O.3     1  UNL1       -0.2865
     29 C          22.9290   73.3531    0.0856 C.3     1  UNL1        0.2611
     30 C          23.1648   73.2693    1.5956 C.3     1  UNL1        0.1582
     31 C          22.1723   72.2737    2.2041 C.3     1  UNL1        0.1625
     32 C          20.7470   72.7171    1.8629 C.3     1  UNL1        0.1686
     33 C          20.6044   72.8222    0.3422 C.3     1  UNL1        0.1760
     34 O          22.3362   72.2438    3.6238 O.3     1  UNL1       -0.3801
     35 O          20.4879   73.9905    2.4566 O.3     1  UNL1       -0.3794
     36 O          21.5760   73.7400   -0.1634 O.3     1  UNL1       -0.3263
     37 H          21.7386   71.6323    4.0755 H       1  UNL1        0.2105
     38 H          19.6008   74.3341    2.2805 H       1  UNL1        0.2105
     39 C          24.7834   71.5057    2.0510 C.2     1  UNL1        0.2231
     40 C          26.1905   71.0378    2.3151 C.3     1  UNL1        0.0946
     41 N          24.5338   72.8150    1.8526 N.am    1  UNL1       -0.2994
     42 O          23.8736   70.7036    2.0170 O.2     1  UNL1       -0.2751
     43 H          25.2607   73.4567    1.8807 H       1  UNL1        0.1496
     44 C          19.2009   73.3222   -0.0048 C.3     1  UNL1        0.1693
     45 O          19.1687   74.7486    0.0775 O.3     1  UNL1       -0.3794
     46 H          18.3073   75.1357   -0.1303 H       1  UNL1        0.2105
@<TRIPOS>BOND
     1    29    30    1
     2    30    41    1
     3    30    31    1
     4    31    34    1
     5    31    32    1
     6    32    35    1
     7    32    33    1
     8    33    36    1
     9    33    44    1
    10    39    40    1
    11    39    42    2
    12    39    41   am
    13    41    43    1
    14    29    28    1
    15    34    37    1
    16    35    38    1
    17    29    36    1
    18    44    45    1
    19    45    46    1
    20    15     6    1
    21    15    16   ar
    22    16    21    2
    23    16    17   ar
    24    17    23    1
    25    17    18   ar
    26    18    19   ar
    27    19    20   ar
    28    15    20   ar
    29    18    22    2
    30     6     7    1
    31     6    11    1
    32     7     9    1
    33     7     8    1
    34     8    13    1
    35     9    10    1
    36     9    12    1
    37    10     5    1
    38    10    11    1
    39    12    14    1
    40     5     4    1
    41     4     1    1
    42     1     2    1
    43     1    24    1
    44     1     3    2
    45    24    25    1
    46    28    25    1
    47    25    26    1
    48    25    27    2
@<TRIPOS>MOLECULE
UD2
 46 48 0 0 0
SMALL
GASTEIGER

@<TRIPOS>ATOM
      1 P          20.9551   71.8250   -3.2919 P.3     1  UNL1        0.2189
      2 O          22.3995   71.1219   -3.1885 O.3     1  UNL1       -0.4371
      3 O          20.8561   72.5649   -4.5692 O.2     1  UNL1       -0.5170
      4 O          19.8050   70.6990   -3.2333 O.3     1  UNL1       -0.3112
      5 C          18.6140   70.8442   -2.4575 C.3     1  UNL1        0.1811
      6 C          16.9742   70.5420   -5.6444 C.3     1  UNL1        0.2383
      7 C          16.9790   69.1023   -5.0705 C.3     1  UNL1        0.1895
      8 O          15.8385   68.3694   -5.5221 O.3     1  UNL1       -0.3779
      9 C          16.9019   69.3597   -3.5457 C.3     1  UNL1        0.1713
     10 C          17.3954   70.8101   -3.3832 C.3     1  UNL1        0.1764
     11 O          17.7596   71.2868   -4.6884 O.3     1  UNL1       -0.3308
     12 O          15.5550   69.2348   -3.0861 O.3     1  UNL1       -0.3794
     13 H          15.7970   67.4623   -5.1903 H       1  UNL1        0.2106
     14 H          15.1734   68.3565   -3.2184 H       1  UNL1        0.2105
     15 N          17.6045   70.5726   -6.9660 N.ar    1  UNL1       -0.2551
     16 C          16.8445   70.4583   -8.0697 C.ar    1  UNL1        0.3323
     17 N          17.3970   70.4829   -9.2970 N.ar    1  UNL1       -0.2743
     18 C          18.7305   70.6255   -9.4383 C.ar    1  UNL1        0.2626
     19 C          19.5425   70.7480   -8.2851 C.ar    1  UNL1        0.0795
     20 C          18.9613   70.7243   -7.0673 C.ar    1  UNL1        0.0869
     21 O          15.6407   70.3293   -7.9574 O.2     1  UNL1       -0.2464
     22 O          19.2318   70.6484  -10.5485 O.2     1  UNL1       -0.2670
     23 H          16.8345   70.3979  -10.0822 H       1  UNL1        0.1734
     24 O          20.7666   72.8480   -2.0626 O.3     1  UNL1       -0.2703
     25 P          21.4927   73.0279   -0.6366 P.3     1  UNL1        0.2208
     26 O          23.0279   73.4564   -0.8670 O.3     1  UNL1       -0.4371
     27 O          20.7995   74.0781    0.1412 O.2     1  UNL1       -0.5170
     28 O          21.4389   71.6367    0.1723 O.3     1  UNL1       -0.2865
     29 C          21.5995   71.5535    1.5895 C.3     1  UNL1        0.2611
     30 C          21.5441   72.9587    2.1936 C.3     1  UNL1        0.1582
     31 C          22.7074   73.7886    1.6417 C.3     1  UNL1        0.1625
     32 C          24.0244   73.0734    1.9552 C.3     1  UNL1        0.1686
     33 C          23.9842   71.6634    1.3601 C.3     1  UNL1        0.1760
     34 O          22.7066   75.0792    2.2562 O.3     1  UNL1       -0.3801
     35 O          24.1974   72.9901    3.3710 O.3     1  UNL1       -0.3794
     36 O          22.8620   70.9558    1.8912 O.3     1  UNL1       -0.3263
     37 H          23.4180   75.6595    1.9522 H       1  UNL1        0.2105
     38 H          25.0133   72.5468    3.6428 H       1  UNL1        0.2105
     39 C          19.5582   74.2465    2.7727 C.2     1  UNL1        0.2231
     40 C          18.2530   74.9021    2.4046 C.3     1  UNL1        0.0946
     41 N          20.2745   73.5959    1.8348 N.am    1  UNL1       -0.2994
     42 O          19.9653   74.3039    3.9143 O.2     1  UNL1       -0.2751
     43 H          19.9490   73.5490    0.9222 H       1  UNL1        0.1496
     44 C          25.2725   70.9212    1.7201 C.3     1  UNL1        0.1693
     45 O          25.0048   69.9770    2.7589 O.3     1  UNL1       -0.3794
     46 H          25.7786   69.4689    3.0384 H       1  UNL1        0.2105
@<TRIPOS>BOND
     1    29    30    1
     2    30    41    1
     3    30    31    1
     4    31    34    1
     5    31    32    1
     6    32    35    1
     7    32    33    1
     8    33    36    1
     9    33    44    1
    10    39    40    1
    11    39    42    2
    12    39    41   am
    13    41    43    1
    14    29    28    1
    15    34    37    1
    16    35    38    1
    17    29    36    1
    18    44    45    1
    19    45    46    1
    20    15     6    1
    21    15    16   ar
    22    16    21    2
    23    16    17   ar
    24    17    23    1
    25    17    18   ar
    26    18    19   ar
    27    19    20   ar
    28    15    20   ar
    29    18    22    2
    30     6     7    1
    31     6    11    1
    32     7     9    1
    33     7     8    1
    34     8    13    1
    35     9    10    1
    36     9    12    1
    37    10     5    1
    38    10    11    1
    39    12    14    1
    40     5     4    1
    41     4     1    1
    42     1     2    1
    43     1    24    1
    44     1     3    2
    45    24    25    1
    46    28    25    1
    47    25    26    1
    48    25    27    2
@<TRIPOS>MOLECULE
UD2
 46 48 0 0 0
SMALL
GASTEIGER

@<TRIPOS>ATOM
      1 P          20.2467   72.7423   -1.9716 P.3     1  UNL1        0.2189
      2 O          21.4741   71.8316   -2.4771 O.3     1  UNL1       -0.4371
      3 O          20.5489   74.1671   -2.2318 O.2     1  UNL1       -0.5170
      4 O          18.9074   72.3246   -2.7625 O.3     1  UNL1       -0.3112
      5 C          18.2488   71.0717   -2.5680 C.3     1  UNL1        0.1811
      6 C          16.8052   70.5735   -5.8244 C.3     1  UNL1        0.2383
      7 C          16.8378   69.1589   -5.1920 C.3     1  UNL1        0.1895
      8 O          15.7563   68.3594   -5.6745 O.3     1  UNL1       -0.3779
      9 C          16.6642   69.4719   -3.6856 C.3     1  UNL1        0.1713
     10 C          17.0868   70.9478   -3.5566 C.3     1  UNL1        0.1764
     11 O          17.5037   71.3889   -4.8586 O.3     1  UNL1       -0.3308
     12 O          15.3000   69.3058   -3.2955 O.3     1  UNL1       -0.3794
     13 H          15.7341   67.4650   -5.3082 H       1  UNL1        0.2106
     14 H          14.9635   68.4071   -3.4120 H       1  UNL1        0.2105
     15 N          17.5072   70.5802   -7.1098 N.ar    1  UNL1       -0.2551
     16 C          16.8023   70.5360   -8.2543 C.ar    1  UNL1        0.3323
     17 N          17.4212   70.5408   -9.4498 N.ar    1  UNL1       -0.2743
     18 C          18.7670   70.5922   -9.5171 C.ar    1  UNL1        0.2626
     19 C          19.5215   70.6401   -8.3202 C.ar    1  UNL1        0.0795
     20 C          18.8747   70.6384   -7.1357 C.ar    1  UNL1        0.0869
     21 O          15.5881   70.4896   -8.2087 O.2     1  UNL1       -0.2464
     22 O          19.3284   70.5970  -10.5984 O.2     1  UNL1       -0.2670
     23 H          16.8978   70.5073  -10.2653 H       1  UNL1        0.1734
     24 O          20.0277   72.5196   -0.3918 O.3     1  UNL1       -0.2703
     25 P          21.0225   72.2843    0.8524 P.3     1  UNL1        0.2208
     26 O          21.2141   70.7036    1.0942 O.3     1  UNL1       -0.4371
     27 O          22.3349   72.9004    0.5584 O.2     1  UNL1       -0.5170
     28 O          20.3969   72.9579    2.1743 O.3     1  UNL1       -0.2865
     29 C          20.4957   74.3549    2.4574 C.3     1  UNL1        0.2611
     30 C          20.1898   74.5995    3.9371 C.3     1  UNL1        0.1582
     31 C          18.7501   74.1662    4.2303 C.3     1  UNL1        0.1625
     32 C          17.7995   74.9327    3.3066 C.3     1  UNL1        0.1686
     33 C          18.1977   74.6751    1.8509 C.3     1  UNL1        0.1760
     34 O          18.4318   74.4591    5.5927 O.3     1  UNL1       -0.3801
     35 O          17.8865   76.3311    3.5858 O.3     1  UNL1       -0.3794
     36 O          19.5563   75.0711    1.6531 O.3     1  UNL1       -0.3263
     37 H          17.5332   74.2096    5.8486 H       1  UNL1        0.2105
     38 H          17.3099   76.8794    3.0354 H       1  UNL1        0.2105
     39 C          21.9970   74.4471    5.5645 C.2     1  UNL1        0.2231
     40 C          22.9473   73.6452    6.4145 C.3     1  UNL1        0.0946
     41 N          21.1141   73.8188    4.7634 N.am    1  UNL1       -0.2994
     42 O          22.0260   75.6595    5.6007 O.2     1  UNL1       -0.2751
     43 H          21.0912   72.8495    4.7334 H       1  UNL1        0.1496
     44 C          17.2898   75.4848    0.9232 C.3     1  UNL1        0.1693
     45 O          15.9539   75.4695    1.4305 O.3     1  UNL1       -0.3794
     46 H          15.3221   75.9645    0.8911 H       1  UNL1        0.2105
@<TRIPOS>BOND
     1    29    30    1
     2    30    41    1
     3    30    31    1
     4    31    34    1
     5    31    32    1
     6    32    35    1
     7    32    33    1
     8    33    36    1
     9    33    44    1
    10    39    40    1
    11    39    42    2
    12    39    41   am
    13    41    43    1
    14    29    28    1
    15    34    37    1
    16    35    38    1
    17    29    36    1
    18    44    45    1
    19    45    46    1
    20    15     6    1
    21    15    16   ar
    22    16    21    2
    23    16    17   ar
    24    17    23    1
    25    17    18   ar
    26    18    19   ar
    27    19    20   ar
    28    15    20   ar
    29    18    22    2
    30     6     7    1
    31     6    11    1
    32     7     9    1
    33     7     8    1
    34     8    13    1
    35     9    10    1
    36     9    12    1
    37    10     5    1
    38    10    11    1
    39    12    14    1
    40     5     4    1
    41     4     1    1
    42     1     2    1
    43     1    24    1
    44     1     3    2
    45    24    25    1
    46    28    25    1
    47    25    26    1
    48    25    27    2
@<TRIPOS>MOLECULE
UD2
 46 48 0 0 0
SMALL
GASTEIGER

@<TRIPOS>ATOM
      1 P          21.1428   71.1787   -0.5009 P.3     1  UNL1        0.2189
      2 O          22.5897   71.0995   -1.2020 O.3     1  UNL1       -0.4371
      3 O          21.1740   70.4409    0.7811 O.2     1  UNL1       -0.5170
      4 O          20.7643   72.7195   -0.2243 O.3     1  UNL1       -0.3112
      5 C          20.0627   73.1498    0.9436 C.3     1  UNL1        0.1811
      6 C          23.2295   73.9698    2.4387 C.3     1  UNL1        0.2383
      7 C          23.1875   74.8035    1.1329 C.3     1  UNL1        0.1895
      8 O          23.9155   76.0238    1.2832 O.3     1  UNL1       -0.3779
      9 C          21.6726   75.0802    0.9721 C.3     1  UNL1        0.1713
     10 C          20.9978   73.9858    1.8209 C.3     1  UNL1        0.1764
     11 O          22.0406   73.1543    2.3544 O.3     1  UNL1       -0.3308
     12 O          21.3461   76.3767    1.4756 O.3     1  UNL1       -0.3794
     13 H          23.9190   76.5800    0.4924 H       1  UNL1        0.2106
     14 H          21.7903   77.1015    1.0154 H       1  UNL1        0.2105
     15 N          24.4294   73.1309    2.4768 N.ar    1  UNL1       -0.2551
     16 C          25.5485   73.5946    3.0612 C.ar    1  UNL1        0.3323
     17 N          26.6658   72.8454    3.1105 N.ar    1  UNL1       -0.2743
     18 C          26.6783   71.6091    2.5721 C.ar    1  UNL1        0.2626
     19 C          25.5070   71.1079    1.9547 C.ar    1  UNL1        0.0795
     20 C          24.3999   71.8791    1.9234 C.ar    1  UNL1        0.0869
     21 O          25.5516   74.7075    3.5509 O.2     1  UNL1       -0.2464
     22 O          27.6888   70.9298    2.6164 O.2     1  UNL1       -0.2670
     23 H          27.4644   73.1955    3.5345 H       1  UNL1        0.1734
     24 O          20.0389   70.5216   -1.4719 O.3     1  UNL1       -0.2703
     25 P          18.9813   71.1201   -2.5285 P.3     1  UNL1        0.2208
     26 O          18.0860   69.9229   -3.1276 O.3     1  UNL1       -0.4371
     27 O          18.1043   72.0985   -1.8488 O.2     1  UNL1       -0.5170
     28 O          19.7732   71.8496   -3.7257 O.3     1  UNL1       -0.2865
     29 C          20.8710   71.2471   -4.4136 C.3     1  UNL1        0.2611
     30 C          21.8454   72.3344   -4.8729 C.3     1  UNL1        0.1582
     31 C          21.1318   73.2637   -5.8596 C.3     1  UNL1        0.1625
     32 C          20.5950   72.4338   -7.0290 C.3     1  UNL1        0.1686
     33 C          19.6685   71.3423   -6.4865 C.3     1  UNL1        0.1760
     34 O          22.0550   74.2386   -6.3499 O.3     1  UNL1       -0.3801
     35 O          21.6860   71.8312   -7.7275 O.3     1  UNL1       -0.3794
     36 O          20.3850   70.5327   -5.5520 O.3     1  UNL1       -0.3263
     37 H          21.6698   74.8624   -6.9806 H       1  UNL1        0.2105
     38 H          21.4188   71.2884   -8.4825 H       1  UNL1        0.2105
     39 C          23.6149   73.3214   -3.5192 C.2     1  UNL1        0.2231
     40 C          24.0818   74.1154   -2.3275 C.3     1  UNL1        0.0946
     41 N          22.2987   73.1067   -3.7133 N.am    1  UNL1       -0.2994
     42 O          24.4239   72.8746   -4.3054 O.2     1  UNL1       -0.2751
     43 H          21.6516   73.4629   -3.0845 H       1  UNL1        0.1496
     44 C          19.1750   70.4713   -7.6432 C.3     1  UNL1        0.1693
     45 O          19.0543   71.2686   -8.8231 O.3     1  UNL1       -0.3794
     46 H          18.7451   70.7804   -9.5984 H       1  UNL1        0.2105
@<TRIPOS>BOND
     1    29    30    1
     2    30    41    1
     3    30    31    1
     4    31    34    1
     5    31    32    1
     6    32    35    1
     7    32    33    1
     8    33    36    1
     9    33    44    1
    10    39    40    1
    11    39    42    2
    12    39    41   am
    13    41    43    1
    14    29    28    1
    15    34    37    1
    16    35    38    1
    17    29    36    1
    18    44    45    1
    19    45    46    1
    20    15     6    1
    21    15    16   ar
    22    16    21    2
    23    16    17   ar
    24    17    23    1
    25    17    18   ar
    26    18    19   ar
    27    19    20   ar
    28    15    20   ar
    29    18    22    2
    30     6     7    1
    31     6    11    1
    32     7     9    1
    33     7     8    1
    34     8    13    1
    35     9    10    1
    36     9    12    1
    37    10     5    1
    38    10    11    1
    39    12    14    1
    40     5     4    1
    41     4     1    1
    42     1     2    1
    43     1    24    1
    44     1     3    2
    45    24    25    1
    46    28    25    1
    47    25    26    1
    48    25    27    2
@<TRIPOS>MOLECULE
UD2
 46 48 0 0 0
SMALL
GASTEIGER

@<TRIPOS>ATOM
      1 P          20.6770   71.5267   -0.7580 P.3     1  UNL1        0.2189
      2 O          21.0064   70.3764    0.3189 O.3     1  UNL1       -0.4371
      3 O          21.7692   71.5987   -1.7535 O.2     1  UNL1       -0.5170
      4 O          19.2922   71.1821   -1.5044 O.3     1  UNL1       -0.3112
      5 C          19.1915   70.2075   -2.5444 C.3     1  UNL1        0.1811
      6 C          17.3158   70.4612   -5.6028 C.3     1  UNL1        0.2383
      7 C          17.0836   69.0059   -5.1228 C.3     1  UNL1        0.1895
      8 O          15.7966   68.5347   -5.5271 O.3     1  UNL1       -0.3779
      9 C          17.1587   69.1552   -3.5835 C.3     1  UNL1        0.1713
     10 C          17.9300   70.4717   -3.3701 C.3     1  UNL1        0.1764
     11 O          18.2909   70.9713   -4.6676 O.3     1  UNL1       -0.3308
     12 O          15.8464   69.2480   -3.0267 O.3     1  UNL1       -0.3794
     13 H          15.6047   67.6284   -5.2507 H       1  UNL1        0.2106
     14 H          15.2960   68.4688   -3.1830 H       1  UNL1        0.2105
     15 N          17.8511   70.4755   -6.9660 N.ar    1  UNL1       -0.2551
     16 C          17.0088   70.4240   -8.0132 C.ar    1  UNL1        0.3323
     17 N          17.4729   70.4355   -9.2768 N.ar    1  UNL1       -0.2743
     18 C          18.7991   70.5011   -9.5122 C.ar    1  UNL1        0.2626
     19 C          19.6971   70.5568   -8.4193 C.ar    1  UNL1        0.0795
     20 C          19.2038   70.5481   -7.1630 C.ar    1  UNL1        0.0869
     21 O          15.8104   70.3647   -7.8159 O.2     1  UNL1       -0.2464
     22 O          19.2204   70.5120  -10.6554 O.2     1  UNL1       -0.2670
     23 H          16.8518   70.3965  -10.0204 H       1  UNL1        0.1734
     24 O          20.5420   72.9440   -0.0055 O.3     1  UNL1       -0.2703
     25 P          20.6537   73.4083    1.5323 P.3     1  UNL1        0.2208
     26 O          19.5510   74.5435    1.8311 O.3     1  UNL1       -0.4371
     27 O          20.4170   72.2466    2.4171 O.2     1  UNL1       -0.5170
     28 O          22.1246   74.0026    1.8079 O.3     1  UNL1       -0.2865
     29 C          22.3593   75.1539    2.6208 C.3     1  UNL1        0.2611
     30 C          23.7887   75.6539    2.3984 C.3     1  UNL1        0.1582
     31 C          24.7747   74.5665    2.8363 C.3     1  UNL1        0.1625
     32 C          24.5062   74.2086    4.3006 C.3     1  UNL1        0.1686
     33 C          23.0487   73.7641    4.4497 C.3     1  UNL1        0.1760
     34 O          26.1121   75.0525    2.7010 O.3     1  UNL1       -0.3801
     35 O          24.7437   75.3524    5.1232 O.3     1  UNL1       -0.3794
     36 O          22.1851   74.8086    3.9966 O.3     1  UNL1       -0.3263
     37 H          26.7904   74.4140    2.9606 H       1  UNL1        0.2105
     38 H          24.5920   75.1979    6.0661 H       1  UNL1        0.2105
     39 C          24.4157   74.9868    0.1402 C.2     1  UNL1        0.2231
     40 C          24.6200   75.2922   -1.3205 C.3     1  UNL1        0.0946
     41 N          23.9874   75.9518    0.9778 N.am    1  UNL1       -0.2994
     42 O          24.6368   73.8715    0.5637 O.2     1  UNL1       -0.2751
     43 H          23.8114   76.8439    0.6399 H       1  UNL1        0.1496
     44 C          22.7559   73.4617    5.9205 C.3     1  UNL1        0.1693
     45 O          23.4473   74.4002    6.7473 O.3     1  UNL1       -0.3794
     46 H          23.3073   74.2683    7.6949 H       1  UNL1        0.2105
@<TRIPOS>BOND
     1    29    30    1
     2    30    41    1
     3    30    31    1
     4    31    34    1
     5    31    32    1
     6    32    35    1
     7    32    33    1
     8    33    36    1
     9    33    44    1
    10    39    40    1
    11    39    42    2
    12    39    41   am
    13    41    43    1
    14    29    28    1
    15    34    37    1
    16    35    38    1
    17    29    36    1
    18    44    45    1
    19    45    46    1
    20    15     6    1
    21    15    16   ar
    22    16    21    2
    23    16    17   ar
    24    17    23    1
    25    17    18   ar
    26    18    19   ar
    27    19    20   ar
    28    15    20   ar
    29    18    22    2
    30     6     7    1
    31     6    11    1
    32     7     9    1
    33     7     8    1
    34     8    13    1
    35     9    10    1
    36     9    12    1
    37    10     5    1
    38    10    11    1
    39    12    14    1
    40     5     4    1
    41     4     1    1
    42     1     2    1
    43     1    24    1
    44     1     3    2
    45    24    25    1
    46    28    25    1
    47    25    26    1
    48    25    27    2
@<TRIPOS>MOLECULE
UD2
 46 48 0 0 0
SMALL
GASTEIGER

@<TRIPOS>ATOM
      1 P          22.1483   72.9955   -6.5565 P.3     1  UNL1        0.2189
      2 O          23.0121   73.3264   -7.8739 O.3     1  UNL1       -0.4371
      3 O          21.5632   74.2451   -6.0227 O.2     1  UNL1       -0.5170
      4 O          20.9669   71.9680   -6.9337 O.3     1  UNL1       -0.3112
      5 C          20.7569   71.4779   -8.2592 C.3     1  UNL1        0.1811
      6 C          17.7070   70.0572   -6.9880 C.3     1  UNL1        0.2383
      7 C          17.2451   71.0734   -8.0631 C.3     1  UNL1        0.1895
      8 O          16.0294   70.6457   -8.6803 O.3     1  UNL1       -0.3779
      9 C          18.4193   71.0363   -9.0716 C.3     1  UNL1        0.1713
     10 C          19.5995   70.4762   -8.2549 C.3     1  UNL1        0.1764
     11 O          19.1326   70.2746   -6.9115 O.3     1  UNL1       -0.3308
     12 O          18.1110   70.1697  -10.1647 O.3     1  UNL1       -0.3794
     13 H          15.6995   71.2490   -9.3599 H       1  UNL1        0.2106
     14 H          17.3392   70.4429  -10.6786 H       1  UNL1        0.2105
     15 N          17.0712   70.3440   -5.7002 N.ar    1  UNL1       -0.2551
     16 C          16.4510   69.3574   -5.0287 C.ar    1  UNL1        0.3323
     17 N          15.8581   69.5924   -3.8432 N.ar    1  UNL1       -0.2743
     18 C          15.8794   70.8297   -3.3072 C.ar    1  UNL1        0.2626
     19 C          16.5295   71.8774   -4.0026 C.ar    1  UNL1        0.0795
     20 C          17.1193   71.6123   -5.1873 C.ar    1  UNL1        0.0869
     21 O          16.4242   68.2368   -5.5000 O.2     1  UNL1       -0.2464
     22 O          15.3435   71.0436   -2.2341 O.2     1  UNL1       -0.2670
     23 H          15.4143   68.8699   -3.3729 H       1  UNL1        0.1734
     24 O          23.1018   72.3301   -5.4423 O.3     1  UNL1       -0.2703
     25 P          23.0970   72.3139   -3.8321 P.3     1  UNL1        0.2208
     26 O          21.6689   71.7877   -3.3055 O.3     1  UNL1       -0.4371
     27 O          24.1643   71.4133   -3.3443 O.2     1  UNL1       -0.5170
     28 O          23.3573   73.8039   -3.2798 O.3     1  UNL1       -0.2865
     29 C          24.6654   74.3443   -3.0848 C.3     1  UNL1        0.2611
     30 C          24.6340   75.3585   -1.9388 C.3     1  UNL1        0.1582
     31 C          23.7045   76.5155   -2.3179 C.3     1  UNL1        0.1625
     32 C          24.1900   77.1373   -3.6302 C.3     1  UNL1        0.1686
     33 C          24.2386   76.0542   -4.7112 C.3     1  UNL1        0.1760
     34 O          23.7261   77.5031   -1.2847 O.3     1  UNL1       -0.3801
     35 O          25.4960   77.6861   -3.4442 O.3     1  UNL1       -0.3794
     36 O          25.0955   74.9940   -4.2828 O.3     1  UNL1       -0.3263
     37 H          23.1578   78.2661   -1.4586 H       1  UNL1        0.2105
     38 H          25.8672   78.0971   -4.2375 H       1  UNL1        0.2105
     39 C          24.6721   75.0173    0.4736 C.2     1  UNL1        0.2231
     40 C          24.1609   74.3498    1.7233 C.3     1  UNL1        0.0946
     41 N          24.1363   74.7085   -0.7237 N.am    1  UNL1       -0.2994
     42 O          25.5670   75.8336    0.5444 O.2     1  UNL1       -0.2751
     43 H          23.4215   74.0552   -0.7809 H       1  UNL1        0.1496
     44 C          24.7796   76.6545   -6.0102 C.3     1  UNL1        0.1693
     45 O          24.4994   75.7702   -7.0974 O.3     1  UNL1       -0.3794
     46 H          24.8149   76.0876   -7.9546 H       1  UNL1        0.2105
@<TRIPOS>BOND
     1    29    30    1
     2    30    41    1
     3    30    31    1
     4    31    34    1
     5    31    32    1
     6    32    35    1
     7    32    33    1
     8    33    36    1
     9    33    44    1
    10    39    40    1
    11    39    42    2
    12    39    41   am
    13    41    43    1
    14    29    28    1
    15    34    37    1
    16    35    38    1
    17    29    36    1
    18    44    45    1
    19    45    46    1
    20    15     6    1
    21    15    16   ar
    22    16    21    2
    23    16    17   ar
    24    17    23    1
    25    17    18   ar
    26    18    19   ar
    27    19    20   ar
    28    15    20   ar
    29    18    22    2
    30     6     7    1
    31     6    11    1
    32     7     9    1
    33     7     8    1
    34     8    13    1
    35     9    10    1
    36     9    12    1
    37    10     5    1
    38    10    11    1
    39    12    14    1
    40     5     4    1
    41     4     1    1
    42     1     2    1
    43     1    24    1
    44     1     3    2
    45    24    25    1
    46    28    25    1
    47    25    26    1
    48    25    27    2
@<TRIPOS>MOLECULE
UD2
 46 48 0 0 0
SMALL
GASTEIGER

@<TRIPOS>ATOM
      1 P          20.7442   71.8864   -0.2762 P.3     1  UNL1        0.2189
      2 O          20.1827   72.8429    0.8906 O.3     1  UNL1       -0.4371
      3 O          20.8095   70.4928    0.2162 O.2     1  UNL1       -0.5170
      4 O          19.7613   71.9602   -1.5498 O.3     1  UNL1       -0.3112
      5 C          19.7493   70.9708   -2.5805 C.3     1  UNL1        0.1811
      6 C          17.6097   70.6746   -5.4565 C.3     1  UNL1        0.2383
      7 C          17.5830   69.2688   -4.8045 C.3     1  UNL1        0.1895
      8 O          16.3280   68.6247   -5.0322 O.3     1  UNL1       -0.3779
      9 C          17.7683   69.6026   -3.3039 C.3     1  UNL1        0.1713
     10 C          18.4019   71.0069   -3.3060 C.3     1  UNL1        0.1764
     11 O          18.5955   71.3869   -4.6778 O.3     1  UNL1       -0.3308
     12 O          16.5047   69.6246   -2.6380 O.3     1  UNL1       -0.3794
     13 H          16.2626   67.7417   -4.6440 H       1  UNL1        0.2106
     14 H          16.0342   68.7803   -2.6575 H       1  UNL1        0.2105
     15 N          18.0249   70.5854   -6.8581 N.ar    1  UNL1       -0.2551
     16 C          17.0945   70.4762   -7.8231 C.ar    1  UNL1        0.3323
     17 N          17.4475   70.3923   -9.1195 N.ar    1  UNL1       -0.2743
     18 C          18.7490   70.4185   -9.4716 C.ar    1  UNL1        0.2626
     19 C          19.7389   70.5341   -8.4662 C.ar    1  UNL1        0.0795
     20 C          19.3563   70.6208   -7.1748 C.ar    1  UNL1        0.0869
     21 O          15.9172   70.4515   -7.5203 O.2     1  UNL1       -0.2464
     22 O          19.0698   70.3430  -10.6446 O.2     1  UNL1       -0.2670
     23 H          16.7640   70.3128   -9.8025 H       1  UNL1        0.1734
     24 O          22.2174   72.3733   -0.7072 O.3     1  UNL1       -0.2703
     25 P          22.8809   73.8131   -0.9895 P.3     1  UNL1        0.2208
     26 O          23.6786   73.7709   -2.3880 O.3     1  UNL1       -0.4371
     27 O          21.8191   74.8408   -1.0588 O.2     1  UNL1       -0.5170
     28 O          23.9027   74.1758    0.2009 O.3     1  UNL1       -0.2865
     29 C          23.5699   75.0649    1.2686 C.3     1  UNL1        0.2611
     30 C          24.8533   75.5686    1.9332 C.3     1  UNL1        0.1582
     31 C          25.6066   74.3789    2.5363 C.3     1  UNL1        0.1625
     32 C          24.6877   73.6540    3.5234 C.3     1  UNL1        0.1686
     33 C          23.4103   73.2239    2.7972 C.3     1  UNL1        0.1760
     34 O          26.7692   74.8485    3.2227 O.3     1  UNL1       -0.3801
     35 O          24.3533   74.5332    4.5988 O.3     1  UNL1       -0.3794
     36 O          22.7748   74.3730    2.2337 O.3     1  UNL1       -0.3263
     37 H          27.2956   74.1467    3.6294 H       1  UNL1        0.2105
     38 H          23.7712   74.1391    5.2635 H       1  UNL1        0.2105
     39 C          26.3368   77.3722    1.2376 C.2     1  UNL1        0.2231
     40 C          27.2048   78.0485    0.2091 C.3     1  UNL1        0.0946
     41 N          25.6973   76.2260    0.9322 N.am    1  UNL1       -0.2994
     42 O          26.2129   77.8593    2.3419 O.2     1  UNL1       -0.2751
     43 H          25.7953   75.8367    0.0491 H       1  UNL1        0.1496
     44 C          22.4609   72.5514    3.7907 C.3     1  UNL1        0.1693
     45 O          21.5906   71.6601    3.0903 O.3     1  UNL1       -0.3794
     46 H          20.9598   71.1978    3.6589 H       1  UNL1        0.2105
@<TRIPOS>BOND
     1    29    30    1
     2    30    41    1
     3    30    31    1
     4    31    34    1
     5    31    32    1
     6    32    35    1
     7    32    33    1
     8    33    36    1
     9    33    44    1
    10    39    40    1
    11    39    42    2
    12    39    41   am
    13    41    43    1
    14    29    28    1
    15    34    37    1
    16    35    38    1
    17    29    36    1
    18    44    45    1
    19    45    46    1
    20    15     6    1
    21    15    16   ar
    22    16    21    2
    23    16    17   ar
    24    17    23    1
    25    17    18   ar
    26    18    19   ar
    27    19    20   ar
    28    15    20   ar
    29    18    22    2
    30     6     7    1
    31     6    11    1
    32     7     9    1
    33     7     8    1
    34     8    13    1
    35     9    10    1
    36     9    12    1
    37    10     5    1
    38    10    11    1
    39    12    14    1
    40     5     4    1
    41     4     1    1
    42     1     2    1
    43     1    24    1
    44     1     3    2
    45    24    25    1
    46    28    25    1
    47    25    26    1
    48    25    27    2
@<TRIPOS>MOLECULE
UD2
 46 48 0 0 0
SMALL
GASTEIGER

@<TRIPOS>ATOM
      1 P          21.3902   72.9159   -6.2385 P.3     1  UNL1        0.2189
      2 O          21.7005   74.0663   -7.3210 O.3     1  UNL1       -0.4371
      3 O          20.1562   73.2558   -5.4965 O.2     1  UNL1       -0.5170
      4 O          21.1915   71.5077   -6.9942 O.3     1  UNL1       -0.3112
      5 C          20.6380   71.4016   -8.3072 C.3     1  UNL1        0.1811
      6 C          17.5618   70.0722   -7.0009 C.3     1  UNL1        0.2383
      7 C          17.1184   71.0890   -8.0833 C.3     1  UNL1        0.1895
      8 O          15.8879   70.6864   -8.6878 O.3     1  UNL1       -0.3779
      9 C          18.2843   71.0118   -9.0992 C.3     1  UNL1        0.1713
     10 C          19.4555   70.4299   -8.2848 C.3     1  UNL1        0.1764
     11 O          18.9931   70.2538   -6.9363 O.3     1  UNL1       -0.3308
     12 O          17.9463   70.1424  -10.1813 O.3     1  UNL1       -0.3794
     13 H          15.5688   71.2911   -9.3713 H       1  UNL1        0.2106
     14 H          17.1781   70.4301  -10.6927 H       1  UNL1        0.2105
     15 N          16.9425   70.3881   -5.7118 N.ar    1  UNL1       -0.2551
     16 C          16.4642   69.3951   -4.9411 C.ar    1  UNL1        0.3323
     17 N          15.8899   69.6564   -3.7519 N.ar    1  UNL1       -0.2743
     18 C          15.7871   70.9272   -3.3125 C.ar    1  UNL1        0.2626
     19 C          16.2873   71.9821   -4.1130 C.ar    1  UNL1        0.0795
     20 C          16.8620   71.6909   -5.2990 C.ar    1  UNL1        0.0869
     21 O          16.5503   68.2445   -5.3246 O.2     1  UNL1       -0.2464
     22 O          15.2679   71.1649   -2.2362 O.2     1  UNL1       -0.2670
     23 H          15.5491   68.9287   -3.2093 H       1  UNL1        0.1734
     24 O          22.6224   72.8019   -5.2080 O.3     1  UNL1       -0.2703
     25 P          23.2048   73.7593   -4.0516 P.3     1  UNL1        0.2208
     26 O          24.8129   73.6726   -4.0431 O.3     1  UNL1       -0.4371
     27 O          22.7879   75.1550   -4.3098 O.2     1  UNL1       -0.5170
     28 O          22.6337   73.2837   -2.6231 O.3     1  UNL1       -0.2865
     29 C          23.4100   72.5382   -1.6835 C.3     1  UNL1        0.2611
     30 C          22.5764   71.3750   -1.1404 C.3     1  UNL1        0.1582
     31 C          21.3586   71.9339   -0.3981 C.3     1  UNL1        0.1625
     32 C          21.8377   72.8729    0.7124 C.3     1  UNL1        0.1686
     33 C          22.6999   73.9786    0.0976 C.3     1  UNL1        0.1760
     34 O          20.6138   70.8570    0.1754 O.3     1  UNL1       -0.3801
     35 O          22.6108   72.1355    1.6610 O.3     1  UNL1       -0.3794
     36 O          23.7973   73.3903   -0.6036 O.3     1  UNL1       -0.3263
     37 H          19.8264   71.1387    0.6610 H       1  UNL1        0.2105
     38 H          22.9483   72.6690    2.3941 H       1  UNL1        0.2105
     39 C          20.9244   70.7489   -2.8186 C.2     1  UNL1        0.2231
     40 C          20.4629   69.8840   -3.9621 C.3     1  UNL1        0.0946
     41 N          22.1281   70.5331   -2.2525 N.am    1  UNL1       -0.2994
     42 O          20.2122   71.6406   -2.4064 O.2     1  UNL1       -0.2751
     43 H          22.6974   69.8197   -2.5810 H       1  UNL1        0.1496
     44 C          23.2318   74.8869    1.2078 C.3     1  UNL1        0.1693
     45 O          22.1628   75.6795    1.7288 O.3     1  UNL1       -0.3794
     46 H          22.4278   76.2808    2.4382 H       1  UNL1        0.2105
@<TRIPOS>BOND
     1    29    30    1
     2    30    41    1
     3    30    31    1
     4    31    34    1
     5    31    32    1
     6    32    35    1
     7    32    33    1
     8    33    36    1
     9    33    44    1
    10    39    40    1
    11    39    42    2
    12    39    41   am
    13    41    43    1
    14    29    28    1
    15    34    37    1
    16    35    38    1
    17    29    36    1
    18    44    45    1
    19    45    46    1
    20    15     6    1
    21    15    16   ar
    22    16    21    2
    23    16    17   ar
    24    17    23    1
    25    17    18   ar
    26    18    19   ar
    27    19    20   ar
    28    15    20   ar
    29    18    22    2
    30     6     7    1
    31     6    11    1
    32     7     9    1
    33     7     8    1
    34     8    13    1
    35     9    10    1
    36     9    12    1
    37    10     5    1
    38    10    11    1
    39    12    14    1
    40     5     4    1
    41     4     1    1
    42     1     2    1
    43     1    24    1
    44     1     3    2
    45    24    25    1
    46    28    25    1
    47    25    26    1
    48    25    27    2
@<TRIPOS>MOLECULE
UD2
 46 48 0 0 0
SMALL
GASTEIGER

@<TRIPOS>ATOM
      1 P          20.8469   72.5236   -2.2259 P.3     1  UNL1        0.2189
      2 O          22.3887   72.5675   -2.6868 O.3     1  UNL1       -0.4371
      3 O          20.2397   73.8608   -2.4049 O.2     1  UNL1       -0.5170
      4 O          20.0498   71.4479   -3.1210 O.3     1  UNL1       -0.3112
      5 C          19.0319   70.5972   -2.5905 C.3     1  UNL1        0.1811
      6 C          17.2317   70.5237   -5.7034 C.3     1  UNL1        0.2383
      7 C          17.1204   69.0785   -5.1547 C.3     1  UNL1        0.1895
      8 O          15.8948   68.4698   -5.5658 O.3     1  UNL1       -0.3779
      9 C          17.1361   69.3098   -3.6238 C.3     1  UNL1        0.1713
     10 C          17.7763   70.7014   -3.4597 C.3     1  UNL1        0.1764
     11 O          18.1278   71.1681   -4.7720 O.3     1  UNL1       -0.3308
     12 O          15.8050   69.3068   -3.1052 O.3     1  UNL1       -0.3794
     13 H          15.7790   67.5642   -5.2477 H       1  UNL1        0.2106
     14 H          15.3335   68.4729   -3.2345 H       1  UNL1        0.2105
     15 N          17.8033   70.5209   -7.0519 N.ar    1  UNL1       -0.2551
     16 C          16.9880   70.4953   -8.1212 C.ar    1  UNL1        0.3323
     17 N          17.4858   70.4918   -9.3720 N.ar    1  UNL1       -0.2743
     18 C          18.8192   70.5160   -9.5719 C.ar    1  UNL1        0.2626
     19 C          19.6891   70.5442   -8.4553 C.ar    1  UNL1        0.0795
     20 C          19.1625   70.5513   -7.2127 C.ar    1  UNL1        0.0869
     21 O          15.7836   70.4734   -7.9560 O.2     1  UNL1       -0.2464
     22 O          19.2710   70.5134  -10.7034 O.2     1  UNL1       -0.2670
     23 H          16.8839   70.4720  -10.1319 H       1  UNL1        0.1734
     24 O          20.7620   72.0984   -0.6750 O.3     1  UNL1       -0.2703
     25 P          21.8602   71.7621    0.4536 P.3     1  UNL1        0.2208
     26 O          21.4912   70.3628    1.1605 O.3     1  UNL1       -0.4371
     27 O          23.1965   71.6603   -0.1727 O.2     1  UNL1       -0.5170
     28 O          21.8720   72.9346    1.5571 O.3     1  UNL1       -0.2865
     29 C          20.8871   73.0451    2.5862 C.3     1  UNL1        0.2611
     30 C          20.1658   74.3892    2.4613 C.3     1  UNL1        0.1582
     31 C          21.1771   75.5222    2.6618 C.3     1  UNL1        0.1625
     32 C          21.8551   75.3517    4.0240 C.3     1  UNL1        0.1686
     33 C          22.5115   73.9700    4.0886 C.3     1  UNL1        0.1760
     34 O          20.4991   76.7799    2.6198 O.3     1  UNL1       -0.3801
     35 O          20.8790   75.4662    5.0610 O.3     1  UNL1       -0.3794
     36 O          21.5224   72.9635    3.8637 O.3     1  UNL1       -0.3263
     37 H          21.0802   77.5436    2.7394 H       1  UNL1        0.2105
     38 H          21.2390   75.3676    5.9536 H       1  UNL1        0.2105
     39 C          18.2305   74.6458    1.0030 C.2     1  UNL1        0.2231
     40 C          17.6112   74.7599   -0.3652 C.3     1  UNL1        0.0946
     41 N          19.5641   74.4998    1.1300 N.am    1  UNL1       -0.2994
     42 O          17.5286   74.6854    1.9920 O.2     1  UNL1       -0.2751
     43 H          20.1256   74.4672    0.3396 H       1  UNL1        0.1496
     44 C          23.1402   73.7684    5.4687 C.3     1  UNL1        0.1693
     45 O          22.3385   72.8633    6.2305 O.3     1  UNL1       -0.3794
     46 H          22.6779   72.6886    7.1189 H       1  UNL1        0.2105
@<TRIPOS>BOND
     1    29    30    1
     2    30    41    1
     3    30    31    1
     4    31    34    1
     5    31    32    1
     6    32    35    1
     7    32    33    1
     8    33    36    1
     9    33    44    1
    10    39    40    1
    11    39    42    2
    12    39    41   am
    13    41    43    1
    14    29    28    1
    15    34    37    1
    16    35    38    1
    17    29    36    1
    18    44    45    1
    19    45    46    1
    20    15     6    1
    21    15    16   ar
    22    16    21    2
    23    16    17   ar
    24    17    23    1
    25    17    18   ar
    26    18    19   ar
    27    19    20   ar
    28    15    20   ar
    29    18    22    2
    30     6     7    1
    31     6    11    1
    32     7     9    1
    33     7     8    1
    34     8    13    1
    35     9    10    1
    36     9    12    1
    37    10     5    1
    38    10    11    1
    39    12    14    1
    40     5     4    1
    41     4     1    1
    42     1     2    1
    43     1    24    1
    44     1     3    2
    45    24    25    1
    46    28    25    1
    47    25    26    1
    48    25    27    2
@<TRIPOS>MOLECULE
UD2
 46 48 0 0 0
SMALL
GASTEIGER

@<TRIPOS>ATOM
      1 P          22.6820   72.6288   -3.9071 P.3     1  UNL1        0.2189
      2 O          23.6672   72.9551   -5.1376 O.3     1  UNL1       -0.4371
      3 O          23.2929   71.5919   -3.0467 O.2     1  UNL1       -0.5170
      4 O          22.4392   73.9672   -3.0447 O.3     1  UNL1       -0.3112
      5 C          21.1412   74.5173   -2.8126 C.3     1  UNL1        0.1811
      6 C          21.8379   73.8104    0.6445 C.3     1  UNL1        0.2383
      7 C          22.6244   75.1123    0.3468 C.3     1  UNL1        0.1895
      8 O          22.7208   75.9286    1.5156 O.3     1  UNL1       -0.3779
      9 C          21.7386   75.7889   -0.7280 C.3     1  UNL1        0.1713
     10 C          20.8990   74.6336   -1.3057 C.3     1  UNL1        0.1764
     11 O          21.3207   73.4279   -0.6484 O.3     1  UNL1       -0.3308
     12 O          20.8925   76.7725   -0.1301 O.3     1  UNL1       -0.3794
     13 H          23.2048   76.7544    1.3801 H       1  UNL1        0.2106
     14 H          21.3703   77.4939    0.3008 H       1  UNL1        0.2105
     15 N          22.7322   72.7761    1.1694 N.ar    1  UNL1       -0.2551
     16 C          22.8293   72.5908    2.4980 C.ar    1  UNL1        0.3323
     17 N          23.6434   71.6478    3.0082 N.ar    1  UNL1       -0.2743
     18 C          24.3771   70.8684    2.1880 C.ar    1  UNL1        0.2626
     19 C          24.2839   71.0520    0.7874 C.ar    1  UNL1        0.0795
     20 C          23.4565   72.0021    0.3033 C.ar    1  UNL1        0.0869
     21 O          22.1734   73.2861    3.2495 O.2     1  UNL1       -0.2464
     22 O          25.1139   70.0143    2.6485 O.2     1  UNL1       -0.2670
     23 H          23.7024   71.5282    3.9686 H       1  UNL1        0.1734
     24 O          21.2730   72.0940   -4.4746 O.3     1  UNL1       -0.2703
     25 P          20.2416   70.9492   -4.0071 P.3     1  UNL1        0.2208
     26 O          21.0643   69.6595   -3.5036 O.3     1  UNL1       -0.4371
     27 O          19.4034   71.4617   -2.9011 O.2     1  UNL1       -0.5170
     28 O          19.3009   70.5358   -5.2469 O.3     1  UNL1       -0.2865
     29 C          18.4764   71.4712   -5.9443 C.3     1  UNL1        0.2611
     30 C          17.0198   71.0033   -5.8972 C.3     1  UNL1        0.1582
     31 C          16.9024   69.6548   -6.6142 C.3     1  UNL1        0.1625
     32 C          17.4178   69.8047   -8.0482 C.3     1  UNL1        0.1686
     33 C          18.8594   70.3189   -8.0123 C.3     1  UNL1        0.1760
     34 O          15.5331   69.2453   -6.6393 O.3     1  UNL1       -0.3801
     35 O          16.5960   70.7344   -8.7564 O.3     1  UNL1       -0.3794
     36 O          18.9034   71.5599   -7.3052 O.3     1  UNL1       -0.3263
     37 H          15.3847   68.3968   -7.0788 H       1  UNL1        0.2105
     38 H          16.8658   70.8791   -9.6742 H       1  UNL1        0.2105
     39 C          16.6771   69.6516   -3.8989 C.2     1  UNL1        0.2231
     40 C          16.2446   69.4976   -2.4644 C.3     1  UNL1        0.0946
     41 N          16.5986   70.8543   -4.5018 N.am    1  UNL1       -0.2994
     42 O          17.0966   68.6926   -4.5125 O.2     1  UNL1       -0.2751
     43 H          16.2624   71.6211   -4.0120 H       1  UNL1        0.1496
     44 C          19.3617   70.5282   -9.4421 C.3     1  UNL1        0.1693
     45 O          18.5092   71.4562  -10.1162 O.3     1  UNL1       -0.3794
     46 H          18.7684   71.6369  -11.0301 H       1  UNL1        0.2105
@<TRIPOS>BOND
     1    29    30    1
     2    30    41    1
     3    30    31    1
     4    31    34    1
     5    31    32    1
     6    32    35    1
     7    32    33    1
     8    33    36    1
     9    33    44    1
    10    39    40    1
    11    39    42    2
    12    39    41   am
    13    41    43    1
    14    29    28    1
    15    34    37    1
    16    35    38    1
    17    29    36    1
    18    44    45    1
    19    45    46    1
    20    15     6    1
    21    15    16   ar
    22    16    21    2
    23    16    17   ar
    24    17    23    1
    25    17    18   ar
    26    18    19   ar
    27    19    20   ar
    28    15    20   ar
    29    18    22    2
    30     6     7    1
    31     6    11    1
    32     7     9    1
    33     7     8    1
    34     8    13    1
    35     9    10    1
    36     9    12    1
    37    10     5    1
    38    10    11    1
    39    12    14    1
    40     5     4    1
    41     4     1    1
    42     1     2    1
    43     1    24    1
    44     1     3    2
    45    24    25    1
    46    28    25    1
    47    25    26    1
    48    25    27    2
@<TRIPOS>MOLECULE
UD2
 46 48 0 0 0
SMALL
GASTEIGER

@<TRIPOS>ATOM
      1 P          16.2166   69.9071   -3.1861 P.3     1  UNL1        0.2189
      2 O          16.0742   68.7561   -4.3025 O.3     1  UNL1       -0.4371
      3 O          15.9511   71.2266   -3.8005 O.2     1  UNL1       -0.5170
      4 O          15.1554   69.6421   -2.0040 O.3     1  UNL1       -0.3112
      5 C          14.6040   70.6906   -1.2052 C.3     1  UNL1        0.1811
      6 C          11.9449   69.0549    0.5810 C.3     1  UNL1        0.2383
      7 C          12.1499   70.3963    1.3298 C.3     1  UNL1        0.1895
      8 O          10.9224   70.8552    1.8995 O.3     1  UNL1       -0.3779
      9 C          12.6160   71.3365    0.1912 C.3     1  UNL1        0.1713
     10 C          13.1371   70.3794   -0.8978 C.3     1  UNL1        0.1764
     11 O          13.0181   69.0427   -0.3853 O.3     1  UNL1       -0.3308
     12 O          11.5176   72.1054   -0.3019 O.3     1  UNL1       -0.3794
     13 H          10.9994   71.6911    2.3791 H       1  UNL1        0.2106
     14 H          11.1127   72.6829    0.3591 H       1  UNL1        0.2105
     15 N          12.0686   67.9247    1.5042 N.ar    1  UNL1       -0.2551
     16 C          10.9631   67.3800    2.0427 C.ar    1  UNL1        0.3323
     17 N          11.0470   66.3408    2.8942 N.ar    1  UNL1       -0.2743
     18 C          12.2500   65.8260    3.2204 C.ar    1  UNL1        0.2626
     19 C          13.4220   66.3889    2.6602 C.ar    1  UNL1        0.0795
     20 C          13.3079   67.4276    1.8060 C.ar    1  UNL1        0.0869
     21 O           9.8717   67.8337    1.7574 O.2     1  UNL1       -0.2464
     22 O          12.3274   64.8852    3.9907 O.2     1  UNL1       -0.2670
     23 H          10.2400   65.9607    3.2743 H       1  UNL1        0.1734
     24 O          17.7089   69.8869   -2.5812 O.3     1  UNL1       -0.2703
     25 P          18.7975   71.0270   -2.2528 P.3     1  UNL1        0.2208
     26 O          18.0573   72.3074   -1.6151 O.3     1  UNL1       -0.4371
     27 O          19.7886   70.5003   -1.2891 O.2     1  UNL1       -0.5170
     28 O          19.5466   71.4607   -3.6106 O.3     1  UNL1       -0.2865
     29 C          20.5336   70.6484   -4.2487 C.3     1  UNL1        0.2611
     30 C          21.9032   71.3215   -4.1317 C.3     1  UNL1        0.1582
     31 C          21.8652   72.6673   -4.8624 C.3     1  UNL1        0.1625
     32 C          21.4557   72.4337   -6.3192 C.3     1  UNL1        0.1686
     33 C          20.1029   71.7176   -6.3518 C.3     1  UNL1        0.1760
     34 O          23.1609   73.2695   -4.8212 O.3     1  UNL1       -0.3801
     35 O          22.4398   71.6266   -6.9684 O.3     1  UNL1       -0.3794
     36 O          20.1988   70.4887   -5.6288 O.3     1  UNL1       -0.3263
     37 H          23.2099   74.1271   -5.2653 H       1  UNL1        0.2105
     38 H          22.2442   71.4374   -7.8968 H       1  UNL1        0.2105
     39 C          23.4572   71.2658   -2.2557 C.2     1  UNL1        0.2231
     40 C          23.7856   71.4908   -0.8030 C.3     1  UNL1        0.0946
     41 N          22.2218   71.5405   -2.7185 N.am    1  UNL1       -0.2994
     42 O          24.3052   70.8368   -3.0100 O.2     1  UNL1       -0.2751
     43 H          21.5432   71.8825   -2.1156 H       1  UNL1        0.1496
     44 C          19.7148   71.4271   -7.8028 C.3     1  UNL1        0.1693
     45 O          18.4713   72.0652   -8.1009 O.3     1  UNL1       -0.3794
     46 H          18.1630   71.9235   -9.0064 H       1  UNL1        0.2105
@<TRIPOS>BOND
     1    29    30    1
     2    30    41    1
     3    30    31    1
     4    31    34    1
     5    31    32    1
     6    32    35    1
     7    32    33    1
     8    33    36    1
     9    33    44    1
    10    39    40    1
    11    39    42    2
    12    39    41   am
    13    41    43    1
    14    29    28    1
    15    34    37    1
    16    35    38    1
    17    29    36    1
    18    44    45    1
    19    45    46    1
    20    15     6    1
    21    15    16   ar
    22    16    21    2
    23    16    17   ar
    24    17    23    1
    25    17    18   ar
    26    18    19   ar
    27    19    20   ar
    28    15    20   ar
    29    18    22    2
    30     6     7    1
    31     6    11    1
    32     7     9    1
    33     7     8    1
    34     8    13    1
    35     9    10    1
    36     9    12    1
    37    10     5    1
    38    10    11    1
    39    12    14    1
    40     5     4    1
    41     4     1    1
    42     1     2    1
    43     1    24    1
    44     1     3    2
    45    24    25    1
    46    28    25    1
    47    25    26    1
    48    25    27    2
@<TRIPOS>MOLECULE
UD2
 46 48 0 0 0
SMALL
GASTEIGER

@<TRIPOS>ATOM
      1 P          20.9056   71.4686   -0.8576 P.3     1  UNL1        0.2189
      2 O          20.8874   70.5471    0.4623 O.3     1  UNL1       -0.4371
      3 O          22.0420   71.0748   -1.7192 O.2     1  UNL1       -0.5170
      4 O          19.5265   71.2747   -1.6663 O.3     1  UNL1       -0.3112
      5 C          19.3032   70.1943   -2.5742 C.3     1  UNL1        0.1811
      6 C          17.3744   70.4425   -5.5999 C.3     1  UNL1        0.2383
      7 C          17.1459   68.9899   -5.1101 C.3     1  UNL1        0.1895
      8 O          15.8504   68.5215   -5.4896 O.3     1  UNL1       -0.3779
      9 C          17.2488   69.1450   -3.5730 C.3     1  UNL1        0.1713
     10 C          18.0282   70.4596   -3.3785 C.3     1  UNL1        0.1764
     11 O          18.3676   70.9529   -4.6842 O.3     1  UNL1       -0.3308
     12 O          15.9469   69.2443   -2.9933 O.3     1  UNL1       -0.3794
     13 H          15.6603   67.6170   -5.2063 H       1  UNL1        0.2106
     14 H          15.3912   68.4664   -3.1367 H       1  UNL1        0.2105
     15 N          17.8854   70.4497   -6.9724 N.ar    1  UNL1       -0.2551
     16 C          17.0233   70.4330   -8.0046 C.ar    1  UNL1        0.3323
     17 N          17.4649   70.4389   -9.2762 N.ar    1  UNL1       -0.2743
     18 C          18.7881   70.4637   -9.5351 C.ar    1  UNL1        0.2626
     19 C          19.7068   70.4825   -8.4582 C.ar    1  UNL1        0.0795
     20 C          19.2360   70.4803   -7.1934 C.ar    1  UNL1        0.0869
     21 O          15.8274   70.4108   -7.7860 O.2     1  UNL1       -0.2464
     22 O          19.1891   70.4695  -10.6856 O.2     1  UNL1       -0.2670
     23 H          16.8297   70.4254  -10.0087 H       1  UNL1        0.1734
     24 O          21.0646   73.0134   -0.4317 O.3     1  UNL1       -0.2703
     25 P          20.0812   74.0927    0.2474 P.3     1  UNL1        0.2208
     26 O          20.2316   75.5061   -0.5098 O.3     1  UNL1       -0.4371
     27 O          18.6828   73.6225    0.1400 O.2     1  UNL1       -0.5170
     28 O          20.4703   74.2709    1.7997 O.3     1  UNL1       -0.2865
     29 C          20.2995   73.2352    2.7689 C.3     1  UNL1        0.2611
     30 C          20.0044   73.8576    4.1357 C.3     1  UNL1        0.1582
     31 C          21.2027   74.7076    4.5695 C.3     1  UNL1        0.1625
     32 C          22.4569   73.8296    4.5902 C.3     1  UNL1        0.1686
     33 C          22.6576   73.2081    3.2054 C.3     1  UNL1        0.1760
     34 O          20.9662   75.2334    5.8775 O.3     1  UNL1       -0.3801
     35 O          22.2986   72.7934    5.5609 O.3     1  UNL1       -0.3794
     36 O          21.4954   72.4568    2.8493 O.3     1  UNL1       -0.3263
     37 H          21.6859   75.7837    6.2158 H       1  UNL1        0.2105
     38 H          23.0574   72.1969    5.6278 H       1  UNL1        0.2105
     39 C          17.8933   74.6870    5.0262 C.2     1  UNL1        0.2231
     40 C          16.6677   75.5572    4.9295 C.3     1  UNL1        0.0946
     41 N          18.8124   74.7041    4.0408 N.am    1  UNL1       -0.2994
     42 O          18.0537   73.9700    5.9918 O.2     1  UNL1       -0.2751
     43 H          18.6840   75.2765    3.2681 H       1  UNL1        0.1496
     44 C          23.8750   72.2821    3.2338 C.3     1  UNL1        0.1693
     45 O          23.4854   70.9693    2.8252 O.3     1  UNL1       -0.3794
     46 H          24.2089   70.3277    2.8195 H       1  UNL1        0.2105
@<TRIPOS>BOND
     1    29    30    1
     2    30    41    1
     3    30    31    1
     4    31    34    1
     5    31    32    1
     6    32    35    1
     7    32    33    1
     8    33    36    1
     9    33    44    1
    10    39    40    1
    11    39    42    2
    12    39    41   am
    13    41    43    1
    14    29    28    1
    15    34    37    1
    16    35    38    1
    17    29    36    1
    18    44    45    1
    19    45    46    1
    20    15     6    1
    21    15    16   ar
    22    16    21    2
    23    16    17   ar
    24    17    23    1
    25    17    18   ar
    26    18    19   ar
    27    19    20   ar
    28    15    20   ar
    29    18    22    2
    30     6     7    1
    31     6    11    1
    32     7     9    1
    33     7     8    1
    34     8    13    1
    35     9    10    1
    36     9    12    1
    37    10     5    1
    38    10    11    1
    39    12    14    1
    40     5     4    1
    41     4     1    1
    42     1     2    1
    43     1    24    1
    44     1     3    2
    45    24    25    1
    46    28    25    1
    47    25    26    1
    48    25    27    2
@<TRIPOS>MOLECULE
UD2
 46 48 0 0 0
SMALL
GASTEIGER

@<TRIPOS>ATOM
      1 P          21.7192   71.5337   -0.3992 P.3     1  UNL1        0.2189
      2 O          21.2103   70.2812    0.4746 O.3     1  UNL1       -0.4371
      3 O          23.1947   71.4980   -0.5010 O.2     1  UNL1       -0.5170
      4 O          21.0773   71.4550   -1.8742 O.3     1  UNL1       -0.3112
      5 C          21.2934   72.4564   -2.8702 C.3     1  UNL1        0.1811
      6 C          20.4903   71.2199   -6.1509 C.3     1  UNL1        0.2383
      7 C          20.9931   72.6660   -6.3917 C.3     1  UNL1        0.1895
      8 O          21.6290   72.7793   -7.6663 O.3     1  UNL1       -0.3779
      9 C          22.0174   72.8495   -5.2452 C.3     1  UNL1        0.1713
     10 C          21.6154   71.7843   -4.2072 C.3     1  UNL1        0.1764
     11 O          20.4488   71.1147   -4.7111 O.3     1  UNL1       -0.3308
     12 O          23.3441   72.6115   -5.7186 O.3     1  UNL1       -0.3794
     13 H          21.9602   73.6659   -7.8636 H       1  UNL1        0.2106
     14 H          23.6280   73.2171   -6.4165 H       1  UNL1        0.2105
     15 N          19.1535   71.0370   -6.7206 N.ar    1  UNL1       -0.2551
     16 C          19.0193   70.4998   -7.9463 C.ar    1  UNL1        0.3323
     17 N          17.8030   70.3203   -8.4947 N.ar    1  UNL1       -0.2743
     18 C          16.6934   70.6777   -7.8167 C.ar    1  UNL1        0.2626
     19 C          16.8199   71.2435   -6.5252 C.ar    1  UNL1        0.0795
     20 C          18.0515   71.4080   -5.9982 C.ar    1  UNL1        0.0869
     21 O          20.0111   70.1727   -8.5690 O.2     1  UNL1       -0.2464
     22 O          15.5920   70.5154   -8.3117 O.2     1  UNL1       -0.2670
     23 H          17.7242   69.9327   -9.3799 H       1  UNL1        0.1734
     24 O          21.2629   72.9049    0.3114 O.3     1  UNL1       -0.2703
     25 P          20.8000   73.2898    1.8049 P.3     1  UNL1        0.2208
     26 O          19.4733   74.2002    1.7371 O.3     1  UNL1       -0.4371
     27 O          20.5115   72.0545    2.5659 O.2     1  UNL1       -0.5170
     28 O          21.9770   74.1092    2.5370 O.3     1  UNL1       -0.2865
     29 C          22.7560   73.5662    3.6044 C.3     1  UNL1        0.2611
     30 C          22.5585   74.4133    4.8638 C.3     1  UNL1        0.1582
     31 C          23.0625   75.8349    4.5967 C.3     1  UNL1        0.1625
     32 C          24.5298   75.7719    4.1638 C.3     1  UNL1        0.1686
     33 C          24.6514   74.8722    2.9310 C.3     1  UNL1        0.1760
     34 O          22.9497   76.6134    5.7902 O.3     1  UNL1       -0.3801
     35 O          25.3189   75.2352    5.2270 O.3     1  UNL1       -0.3794
     36 O          24.1372   73.5747    3.2377 O.3     1  UNL1       -0.3263
     37 H          23.2511   77.5272    5.6933 H       1  UNL1        0.2105
     38 H          26.2618   75.1657    5.0217 H       1  UNL1        0.2105
     39 C          20.7502   74.3863    6.4969 C.2     1  UNL1        0.2231
     40 C          19.2868   74.4293    6.8508 C.3     1  UNL1        0.0946
     41 N          21.1348   74.4550    5.2072 N.am    1  UNL1       -0.2994
     42 O          21.5838   74.2898    7.3733 O.2     1  UNL1       -0.2751
     43 H          20.4687   74.5312    4.5061 H       1  UNL1        0.1496
     44 C          26.1225   74.7560    2.5277 C.3     1  UNL1        0.1693
     45 O          26.8115   75.9559    2.8855 O.3     1  UNL1       -0.3794
     46 H          27.7515   75.9529    2.6588 H       1  UNL1        0.2105
@<TRIPOS>BOND
     1    29    30    1
     2    30    41    1
     3    30    31    1
     4    31    34    1
     5    31    32    1
     6    32    35    1
     7    32    33    1
     8    33    36    1
     9    33    44    1
    10    39    40    1
    11    39    42    2
    12    39    41   am
    13    41    43    1
    14    29    28    1
    15    34    37    1
    16    35    38    1
    17    29    36    1
    18    44    45    1
    19    45    46    1
    20    15     6    1
    21    15    16   ar
    22    16    21    2
    23    16    17   ar
    24    17    23    1
    25    17    18   ar
    26    18    19   ar
    27    19    20   ar
    28    15    20   ar
    29    18    22    2
    30     6     7    1
    31     6    11    1
    32     7     9    1
    33     7     8    1
    34     8    13    1
    35     9    10    1
    36     9    12    1
    37    10     5    1
    38    10    11    1
    39    12    14    1
    40     5     4    1
    41     4     1    1
    42     1     2    1
    43     1    24    1
    44     1     3    2
    45    24    25    1
    46    28    25    1
    47    25    26    1
    48    25    27    2
@<TRIPOS>MOLECULE
UD2
 46 48 0 0 0
SMALL
GASTEIGER

@<TRIPOS>ATOM
      1 P          15.2752   70.7726   -2.1707 P.3     1  UNL1        0.2189
      2 O          14.0177   71.7663   -2.3211 O.3     1  UNL1       -0.4371
      3 O          16.3363   71.4349   -1.3805 O.2     1  UNL1       -0.5170
      4 O          14.8084   69.4262   -1.4204 O.3     1  UNL1       -0.3112
      5 C          14.2861   69.4188   -0.0905 C.3     1  UNL1        0.1811
      6 C          13.1769   66.8353    2.1526 C.3     1  UNL1        0.2383
      7 C          11.8725   67.5214    1.6730 C.3     1  UNL1        0.1895
      8 O          10.7892   66.5903    1.6389 O.3     1  UNL1       -0.3779
      9 C          12.2525   67.9793    0.2435 C.3     1  UNL1        0.1713
     10 C          13.7927   68.0118    0.2555 C.3     1  UNL1        0.1764
     11 O          14.2179   67.6570    1.5810 O.3     1  UNL1       -0.3308
     12 O          11.7791   67.0403   -0.7235 O.3     1  UNL1       -0.3794
     13 H           9.9509   66.9723    1.3456 H       1  UNL1        0.2106
     14 H          10.8181   66.9358   -0.7338 H       1  UNL1        0.2105
     15 N          13.2567   66.8442    3.6150 N.ar    1  UNL1       -0.2551
     16 C          12.9023   65.7476    4.3084 C.ar    1  UNL1        0.3323
     17 N          12.9654   65.7277    5.6529 N.ar    1  UNL1       -0.2743
     18 C          13.3900   66.8148    6.3286 C.ar    1  UNL1        0.2626
     19 C          13.7672   67.9756    5.6114 C.ar    1  UNL1        0.0795
     20 C          13.6979   67.9661    4.2636 C.ar    1  UNL1        0.0869
     21 O          12.5178   64.7601    3.7122 O.2     1  UNL1       -0.2464
     22 O          13.4480   66.7979    7.5456 O.2     1  UNL1       -0.2670
     23 H          12.7050   64.9292    6.1374 H       1  UNL1        0.1734
     24 O          15.8448   70.4025   -3.6308 O.3     1  UNL1       -0.2703
     25 P          16.9655   69.3781   -4.1669 P.3     1  UNL1        0.2208
     26 O          17.5773   68.5548   -2.9252 O.3     1  UNL1       -0.4371
     27 O          16.3532   68.4358   -5.1290 O.2     1  UNL1       -0.5170
     28 O          18.1409   70.2022   -4.8963 O.3     1  UNL1       -0.2865
     29 C          18.3833   71.5896   -4.6564 C.3     1  UNL1        0.2611
     30 C          18.6729   72.2949   -5.9836 C.3     1  UNL1        0.1582
     31 C          19.9426   71.7008   -6.6012 C.3     1  UNL1        0.1625
     32 C          21.0965   71.8425   -5.6048 C.3     1  UNL1        0.1686
     33 C          20.7134   71.1544   -4.2918 C.3     1  UNL1        0.1760
     34 O          20.2617   72.4033   -7.8045 O.3     1  UNL1       -0.3801
     35 O          21.3509   73.2273   -5.3623 O.3     1  UNL1       -0.3794
     36 O          19.5083   71.7328   -3.7868 O.3     1  UNL1       -0.3263
     37 H          21.0561   72.0785   -8.2501 H       1  UNL1        0.2105
     38 H          22.0714   73.3921   -4.7379 H       1  UNL1        0.2105
     39 C          16.7229   73.1268   -7.1849 C.2     1  UNL1        0.2231
     40 C          15.5636   72.9258   -8.1253 C.3     1  UNL1        0.0946
     41 N          17.5454   72.0985   -6.8983 N.am    1  UNL1       -0.2994
     42 O          16.9167   74.2151   -6.6846 O.2     1  UNL1       -0.2751
     43 H          17.3902   71.2280   -7.2972 H       1  UNL1        0.1496
     44 C          21.8369   71.3428   -3.2708 C.3     1  UNL1        0.1693
     45 O          21.4937   70.6748   -2.0550 O.3     1  UNL1       -0.3794
     46 H          22.1622   70.7523   -1.3606 H       1  UNL1        0.2105
@<TRIPOS>BOND
     1    29    30    1
     2    30    41    1
     3    30    31    1
     4    31    34    1
     5    31    32    1
     6    32    35    1
     7    32    33    1
     8    33    36    1
     9    33    44    1
    10    39    40    1
    11    39    42    2
    12    39    41   am
    13    41    43    1
    14    29    28    1
    15    34    37    1
    16    35    38    1
    17    29    36    1
    18    44    45    1
    19    45    46    1
    20    15     6    1
    21    15    16   ar
    22    16    21    2
    23    16    17   ar
    24    17    23    1
    25    17    18   ar
    26    18    19   ar
    27    19    20   ar
    28    15    20   ar
    29    18    22    2
    30     6     7    1
    31     6    11    1
    32     7     9    1
    33     7     8    1
    34     8    13    1
    35     9    10    1
    36     9    12    1
    37    10     5    1
    38    10    11    1
    39    12    14    1
    40     5     4    1
    41     4     1    1
    42     1     2    1
    43     1    24    1
    44     1     3    2
    45    24    25    1
    46    28    25    1
    47    25    26    1
    48    25    27    2
