@<TRIPOS>MOLECULE
*****
 43 45 0 0 0
SMALL
GASTEIGER

@<TRIPOS>ATOM
      1 P          21.0430   73.7819   -5.1525 P.3     1  UNL1        0.2189
      2 O          19.8190   73.9930   -4.1159 O.co2   1  UNL1       -0.4371
      3 O          21.9661   74.9567   -5.2910 O.2     1  UNL1       -0.5170
      4 O          20.3188   73.2930   -6.5143 O.3     1  UNL1       -0.3112
      5 C          21.1291   72.9388   -7.6214 C.3     1  UNL1        0.1811
      6 O          20.0071   70.8432   -7.9724 O.3     1  UNL1       -0.3308
      7 O          18.5232   72.2218  -10.1834 O.3     1  UNL1       -0.3794
      8 O          16.7058   72.2334   -8.1503 O.3     1  UNL1       -0.3779
      9 C          18.9537   72.7399   -8.9258 C.3     1  UNL1        0.1713
     10 C          18.0772   72.2092   -7.8106 C.3     1  UNL1        0.1895
     11 C          20.3023   72.1119   -8.5965 C.3     1  UNL1        0.1764
     12 C          18.6111   70.7978   -7.6346 C.3     1  UNL1        0.2383
     13 H          17.6638   72.6087  -10.4151 H       1  UNL1        0.2105
     14 H          16.4137   73.1528   -8.2512 H       1  UNL1        0.2106
     15 O          16.1841   69.9068   -6.4973 O.2     1  UNL1       -0.2464
     16 O          18.1989   69.0038   -2.4518 O.2     1  UNL1       -0.2670
     17 N          18.4728   70.3241   -6.2863 N.ar    1  UNL1       -0.2551
     18 N          17.1893   69.4577   -4.4840 N.ar    1  UNL1       -0.2743
     19 C          17.2092   69.9003   -5.8128 C.ar    1  UNL1        0.3323
     20 C          19.5824   70.2828   -5.4491 C.ar    1  UNL1        0.0869
     21 C          19.5464   69.8592   -4.1840 C.ar    1  UNL1        0.0795
     22 C          18.2647   69.3990   -3.6117 C.ar    1  UNL1        0.2626
     23 H          16.3197   69.1580   -4.1323 H       1  UNL1        0.1734
     24 O          21.7487   72.4320   -4.6115 O.3     1  UNL1       -0.2703
     25 P          22.9096   72.2096   -3.5089 P.3     1  UNL1        0.2208
     26 O          24.1014   73.1744   -4.0252 O.co2   1  UNL1       -0.4371
     27 O          23.3119   70.7756   -3.3195 O.2     1  UNL1       -0.5170
     28 O          22.3509   72.9292   -2.1766 O.3     1  UNL1       -0.2858
     29 O          21.5501   71.2548   -0.7030 O.3     1  UNL1       -0.3258
     30 O          20.4354   74.6055    1.4373 O.3     1  UNL1       -0.3794
     31 O          22.6305   72.9994    2.3593 O.3     1  UNL1       -0.3794
     32 O          20.2138   74.5959   -1.4489 O.3     1  UNL1       -0.3775
     33 C          21.2708   73.8287    0.5748 C.3     1  UNL1        0.1715
     34 C          21.7252   72.5844    1.3403 C.3     1  UNL1        0.1694
     35 C          20.4754   73.4346   -0.6684 C.3     1  UNL1        0.1967
     36 C          22.4014   71.5740    0.4038 C.3     1  UNL1        0.1761
     37 C          21.2158   72.3894   -1.5047 C.3     1  UNL1        0.2704
     38 H          20.9346   74.8594    2.2284 H       1  UNL1        0.2105
     39 H          22.1913   73.6375    2.9434 H       1  UNL1        0.2105
     40 H          19.7446   75.2497   -0.9083 H       1  UNL1        0.2106
     41 O          22.1198   69.2014    0.3923 O.3     1  UNL1       -0.3794
     42 C          22.7208   70.2605    1.1143 C.3     1  UNL1        0.1693
     43 H          22.3150   68.3590    0.8328 H       1  UNL1        0.2105
@<TRIPOS>UNITY_ATOM_ATTR
2 1
charge -1
26 1
charge -1
@<TRIPOS>BOND
     1    25    28    1
     2    25    24    1
     3    25    26    1
     4    25    27    2
     5     1     4    1
     6     1    24    1
     7     1     2    1
     8     1     3    2
     9     6    11    1
    10     6    12    1
    11    29    36    1
    12    29    37    1
    13     7     9    1
    14     7    13    1
    15     8    10    1
    16     8    14    1
    17    28    37    1
    18     4     5    1
    19    30    33    1
    20    30    38    1
    21    31    34    1
    22    31    39    1
    23    32    35    1
    24    32    40    1
    25    41    42    1
    26    41    43    1
    27    15    19    2
    28    16    22    2
    29    17    12    1
    30    17    19   ar
    31    17    20   ar
    32    18    19   ar
    33    18    22   ar
    34    18    23    1
    35     9    10    1
    36     9    11    1
    37    10    12    1
    38    11     5    1
    39    33    34    1
    40    33    35    1
    41    34    36    1
    42    35    37    1
    43    36    42    1
    44    20    21   ar
    45    21    22   ar
@<TRIPOS>MOLECULE
*****
 43 45 0 0 0
SMALL
GASTEIGER

@<TRIPOS>ATOM
      1 P          22.7316   71.4847   -2.5784 P.3     1  UNL1        0.2189
      2 O          23.0857   72.9830   -3.0756 O.co2   1  UNL1       -0.4371
      3 O          23.5105   70.3930   -3.2515 O.2     1  UNL1       -0.5170
      4 O          21.1231   71.3956   -2.7287 O.3     1  UNL1       -0.3112
      5 C          20.4919   72.1858   -3.7211 C.3     1  UNL1        0.1811
      6 O          18.3557   72.3348   -4.8111 O.3     1  UNL1       -0.3308
      7 O          17.2440   70.9149   -2.4155 O.3     1  UNL1       -0.3794
      8 O          17.4351   68.9130   -4.2573 O.3     1  UNL1       -0.3779
      9 C          18.5034   70.7416   -3.0630 C.3     1  UNL1        0.1713
     10 C          18.3235   70.0056   -4.3744 C.3     1  UNL1        0.1895
     11 C          18.9834   72.1103   -3.5297 C.3     1  UNL1        0.1764
     12 C          17.7865   71.1013   -5.2795 C.3     1  UNL1        0.2383
     13 H          16.9174   70.0542   -2.1083 H       1  UNL1        0.2105
     14 H          17.8216   68.2432   -3.6718 H       1  UNL1        0.2106
     15 O          15.9764   70.4389   -7.3442 O.2     1  UNL1       -0.2464
     16 O          19.3245   70.3834  -10.5110 O.2     1  UNL1       -0.2670
     17 N          18.1580   70.9082   -6.6529 N.ar    1  UNL1       -0.2551
     18 N          17.6450   70.4120   -8.9194 N.ar    1  UNL1       -0.2743
     19 C          17.1720   70.5768   -7.6113 C.ar    1  UNL1        0.3323
     20 C          19.4870   71.0479   -7.0375 C.ar    1  UNL1        0.0869
     21 C          19.9220   70.8861   -8.2889 C.ar    1  UNL1        0.0795
     22 C          18.9558   70.5389   -9.3510 C.ar    1  UNL1        0.2626
     23 H          16.9760   70.1805   -9.6040 H       1  UNL1        0.1734
     24 O          22.9427   71.5734   -0.9783 O.3     1  UNL1       -0.2703
     25 P          22.4799   70.5802    0.2102 P.3     1  UNL1        0.2208
     26 O          23.7134   69.5397    0.3256 O.co2   1  UNL1       -0.4371
     27 O          21.1434   69.9338   -0.0135 O.2     1  UNL1       -0.5170
     28 O          22.5744   71.4747    1.5502 O.3     1  UNL1       -0.2858
     29 O          21.5272   72.2651    3.5239 O.3     1  UNL1       -0.3258
     30 O          21.2000   75.6612    1.1979 O.3     1  UNL1       -0.3794
     31 O          23.0738   75.6080    3.3736 O.3     1  UNL1       -0.3794
     32 O          20.8464   73.0503   -0.0011 O.3     1  UNL1       -0.3775
     33 C          21.8237   74.4689    1.6823 C.3     1  UNL1        0.1715
     34 C          22.0576   74.6269    3.1860 C.3     1  UNL1        0.1694
     35 C          20.9088   73.2780    1.4027 C.3     1  UNL1        0.1967
     36 C          22.4757   73.2956    3.8245 C.3     1  UNL1        0.1761
     37 C          21.3875   72.0166    2.1237 C.3     1  UNL1        0.2704
     38 H          21.7760   76.4212    1.3719 H       1  UNL1        0.2105
     39 H          22.7976   76.4436    2.9654 H       1  UNL1        0.2105
     40 H          20.5419   73.8560   -0.4460 H       1  UNL1        0.2106
     41 O          21.2594   73.2371    5.8803 O.3     1  UNL1       -0.3794
     42 C          22.5612   73.3930    5.3461 C.3     1  UNL1        0.1693
     43 H          21.2984   73.2966    6.8481 H       1  UNL1        0.2105
@<TRIPOS>UNITY_ATOM_ATTR
2 1
charge -1
26 1
charge -1
@<TRIPOS>BOND
     1    25    28    1
     2    25    24    1
     3    25    26    1
     4    25    27    2
     5     1     4    1
     6     1    24    1
     7     1     2    1
     8     1     3    2
     9     6    11    1
    10     6    12    1
    11    29    36    1
    12    29    37    1
    13     7     9    1
    14     7    13    1
    15     8    10    1
    16     8    14    1
    17    28    37    1
    18     4     5    1
    19    30    33    1
    20    30    38    1
    21    31    34    1
    22    31    39    1
    23    32    35    1
    24    32    40    1
    25    41    42    1
    26    41    43    1
    27    15    19    2
    28    16    22    2
    29    17    12    1
    30    17    19   ar
    31    17    20   ar
    32    18    19   ar
    33    18    22   ar
    34    18    23    1
    35     9    10    1
    36     9    11    1
    37    10    12    1
    38    11     5    1
    39    33    34    1
    40    33    35    1
    41    34    36    1
    42    35    37    1
    43    36    42    1
    44    20    21   ar
    45    21    22   ar
@<TRIPOS>MOLECULE
*****
 43 45 0 0 0
SMALL
GASTEIGER

@<TRIPOS>ATOM
      1 P          22.8197   71.7975   -2.3428 P.3     1  UNL1        0.2189
      2 O          23.5853   73.2169   -2.4716 O.co2   1  UNL1       -0.4371
      3 O          23.3858   70.6933   -3.1864 O.2     1  UNL1       -0.5170
      4 O          21.2685   72.1666   -2.6173 O.3     1  UNL1       -0.3112
      5 C          20.5424   71.3853   -3.5502 C.3     1  UNL1        0.1811
      6 O          18.6038   72.1926   -4.7179 O.3     1  UNL1       -0.3308
      7 O          16.9935   70.9883   -2.4937 O.3     1  UNL1       -0.3794
      8 O          16.7456   69.1344   -4.4782 O.3     1  UNL1       -0.3779
      9 C          18.1958   70.5129   -3.0969 C.3     1  UNL1        0.1713
     10 C          17.9054   69.9416   -4.4690 C.3     1  UNL1        0.1895
     11 C          19.0620   71.7207   -3.4320 C.3     1  UNL1        0.1764
     12 C          17.7492   71.1991   -5.3072 C.3     1  UNL1        0.2383
     13 H          16.4241   70.2347   -2.2704 H       1  UNL1        0.2105
     14 H          16.8949   68.3475   -3.9312 H       1  UNL1        0.2106
     15 O          16.0062   70.3396   -7.3570 O.2     1  UNL1       -0.2464
     16 O          19.3623   70.4622  -10.5134 O.2     1  UNL1       -0.2670
     17 N          18.1408   70.9984   -6.6739 N.ar    1  UNL1       -0.2551
     18 N          17.6787   70.4015   -8.9270 N.ar    1  UNL1       -0.2743
     19 C          17.1884   70.5641   -7.6250 C.ar    1  UNL1        0.3323
     20 C          19.4564   71.2322   -7.0592 C.ar    1  UNL1        0.0869
     21 C          19.9083   71.0711   -8.3046 C.ar    1  UNL1        0.0795
     22 C          18.9773   70.6197   -9.3589 C.ar    1  UNL1        0.2626
     23 H          17.0332   70.0992   -9.6065 H       1  UNL1        0.1734
     24 O          22.8491   71.5116   -0.7521 O.3     1  UNL1       -0.2703
     25 P          22.0368   70.4441    0.1498 P.3     1  UNL1        0.2208
     26 O          23.1918   69.4302    0.6551 O.co2   1  UNL1       -0.4371
     27 O          20.8963   69.7774   -0.5636 O.2     1  UNL1       -0.5170
     28 O          21.6098   71.2668    1.4711 O.3     1  UNL1       -0.2858
     29 O          22.1467   73.4761    0.8025 O.3     1  UNL1       -0.3258
     30 O          20.2401   74.3109    4.3689 O.3     1  UNL1       -0.3794
     31 O          18.9299   74.9142    1.8855 O.3     1  UNL1       -0.3794
     32 O          21.9601   71.9920    4.1593 O.3     1  UNL1       -0.3775
     33 C          20.4729   73.5966    3.1519 C.3     1  UNL1        0.1715
     34 C          20.3095   74.5720    1.9846 C.3     1  UNL1        0.1694
     35 C          21.8864   73.0180    3.1753 C.3     1  UNL1        0.1967
     36 C          20.8017   73.9507    0.6705 C.3     1  UNL1        0.1761
     37 C          22.2953   72.4704    1.8067 C.3     1  UNL1        0.2704
     38 H          19.3441   74.6804    4.3607 H       1  UNL1        0.2105
     39 H          18.6316   75.3050    2.7219 H       1  UNL1        0.2105
     40 H          21.6992   72.3513    5.0211 H       1  UNL1        0.2106
     41 O          19.7085   74.6579   -1.3329 O.3     1  UNL1       -0.3794
     42 C          20.7949   74.9588   -0.4765 C.3     1  UNL1        0.1693
     43 H          19.6915   75.2917   -2.0676 H       1  UNL1        0.2105
@<TRIPOS>UNITY_ATOM_ATTR
2 1
charge -1
26 1
charge -1
@<TRIPOS>BOND
     1    25    28    1
     2    25    24    1
     3    25    26    1
     4    25    27    2
     5     1     4    1
     6     1    24    1
     7     1     2    1
     8     1     3    2
     9     6    11    1
    10     6    12    1
    11    29    36    1
    12    29    37    1
    13     7     9    1
    14     7    13    1
    15     8    10    1
    16     8    14    1
    17    28    37    1
    18     4     5    1
    19    30    33    1
    20    30    38    1
    21    31    34    1
    22    31    39    1
    23    32    35    1
    24    32    40    1
    25    41    42    1
    26    41    43    1
    27    15    19    2
    28    16    22    2
    29    17    12    1
    30    17    19   ar
    31    17    20   ar
    32    18    19   ar
    33    18    22   ar
    34    18    23    1
    35     9    10    1
    36     9    11    1
    37    10    12    1
    38    11     5    1
    39    33    34    1
    40    33    35    1
    41    34    36    1
    42    35    37    1
    43    36    42    1
    44    20    21   ar
    45    21    22   ar
@<TRIPOS>MOLECULE
*****
 43 45 0 0 0
SMALL
GASTEIGER

@<TRIPOS>ATOM
      1 P          21.6095   70.5521   -0.6727 P.3     1  UNL1        0.2189
      2 O          23.0486   70.7851   -1.3742 O.co2   1  UNL1       -0.4371
      3 O          21.6270   69.6475    0.5243 O.2     1  UNL1       -0.5170
      4 O          20.6539   70.0855   -1.8922 O.3     1  UNL1       -0.3112
      5 C          20.5046   70.9517   -3.0036 C.3     1  UNL1        0.1811
      6 O          18.8458   72.1528   -4.2605 O.3     1  UNL1       -0.3308
      7 O          16.8837   71.2438   -2.1834 O.3     1  UNL1       -0.3794
      8 O          16.4110   69.5195   -4.2425 O.3     1  UNL1       -0.3779
      9 C          18.0071   70.5526   -2.7270 C.3     1  UNL1        0.1713
     10 C          17.7035   70.0802   -4.1336 C.3     1  UNL1        0.1895
     11 C          19.1144   71.5716   -2.9658 C.3     1  UNL1        0.1764
     12 C          17.8545   71.3616   -4.9357 C.3     1  UNL1        0.2383
     13 H          16.1635   70.6135   -2.0221 H       1  UNL1        0.2105
     14 H          16.3654   68.7069   -3.7150 H       1  UNL1        0.2106
     15 O          16.1562   70.5449   -7.0398 O.2     1  UNL1       -0.2464
     16 O          19.6377   70.4516  -10.0584 O.2     1  UNL1       -0.2670
     17 N          18.2905   71.1170   -6.2816 N.ar    1  UNL1       -0.2551
     18 N          17.8911   70.4993   -8.5411 N.ar    1  UNL1       -0.2743
     19 C          17.3574   70.7092   -7.2632 C.ar    1  UNL1        0.3323
     20 C          19.6300   71.2821   -6.6169 C.ar    1  UNL1        0.0869
     21 C          20.1232   71.0765   -7.8399 C.ar    1  UNL1        0.0795
     22 C          19.2148   70.6488   -8.9234 C.ar    1  UNL1        0.2626
     23 H          17.2597   70.2143   -9.2411 H       1  UNL1        0.1734
     24 O          21.1043   72.0576   -0.3708 O.3     1  UNL1       -0.2703
     25 P          21.9109   73.4574   -0.3177 P.3     1  UNL1        0.2208
     26 O          20.8773   74.5070   -0.9867 O.co2   1  UNL1       -0.4371
     27 O          23.2610   73.4149   -0.9729 O.2     1  UNL1       -0.5170
     28 O          21.9388   73.8538    1.2467 O.3     1  UNL1       -0.2858
     29 O          23.8496   73.9510    2.6452 O.3     1  UNL1       -0.3258
     30 O          21.0261   72.8745    5.4595 O.3     1  UNL1       -0.3794
     31 O          22.0860   75.5437    5.4633 O.3     1  UNL1       -0.3794
     32 O          20.9095   71.7512    2.7942 O.3     1  UNL1       -0.3775
     33 C          21.5132   73.5393    4.2907 C.3     1  UNL1        0.1715
     34 C          22.6496   74.4742    4.7092 C.3     1  UNL1        0.1694
     35 C          22.0150   72.4951    3.2951 C.3     1  UNL1        0.1967
     36 C          23.3975   75.0196    3.4851 C.3     1  UNL1        0.1761
     37 C          22.7868   73.1392    2.1420 C.3     1  UNL1        0.2704
     38 H          20.7055   73.5318    6.0956 H       1  UNL1        0.2105
     39 H          21.6162   75.1858    6.2330 H       1  UNL1        0.2105
     40 H          20.4293   71.3482    3.5337 H       1  UNL1        0.2106
     41 O          25.0303   75.4298    5.1806 O.3     1  UNL1       -0.3794
     42 C          24.6311   75.8276    3.8818 C.3     1  UNL1        0.1693
     43 H          25.8148   75.9356    5.4462 H       1  UNL1        0.2105
@<TRIPOS>UNITY_ATOM_ATTR
2 1
charge -1
26 1
charge -1
@<TRIPOS>BOND
     1    25    28    1
     2    25    24    1
     3    25    26    1
     4    25    27    2
     5     1     4    1
     6     1    24    1
     7     1     2    1
     8     1     3    2
     9     6    11    1
    10     6    12    1
    11    29    36    1
    12    29    37    1
    13     7     9    1
    14     7    13    1
    15     8    10    1
    16     8    14    1
    17    28    37    1
    18     4     5    1
    19    30    33    1
    20    30    38    1
    21    31    34    1
    22    31    39    1
    23    32    35    1
    24    32    40    1
    25    41    42    1
    26    41    43    1
    27    15    19    2
    28    16    22    2
    29    17    12    1
    30    17    19   ar
    31    17    20   ar
    32    18    19   ar
    33    18    22   ar
    34    18    23    1
    35     9    10    1
    36     9    11    1
    37    10    12    1
    38    11     5    1
    39    33    34    1
    40    33    35    1
    41    34    36    1
    42    35    37    1
    43    36    42    1
    44    20    21   ar
    45    21    22   ar
@<TRIPOS>MOLECULE
*****
 43 45 0 0 0
SMALL
GASTEIGER

@<TRIPOS>ATOM
      1 P          22.7313   71.2703   -2.0514 P.3     1  UNL1        0.2189
      2 O          23.2732   70.5319   -3.3849 O.co2   1  UNL1       -0.4371
      3 O          23.2731   70.7275   -0.7617 O.2     1  UNL1       -0.5170
      4 O          21.1217   71.2277   -2.2106 O.3     1  UNL1       -0.3112
      5 C          20.5691   71.2979   -3.5135 C.3     1  UNL1        0.1811
      6 O          18.6745   72.1798   -4.6993 O.3     1  UNL1       -0.3308
      7 O          16.9976   71.0392   -2.4907 O.3     1  UNL1       -0.3794
      8 O          16.6967   69.1961   -4.4780 O.3     1  UNL1       -0.3779
      9 C          18.1862   70.5174   -3.0826 C.3     1  UNL1        0.1713
     10 C          17.8868   69.9577   -4.4576 C.3     1  UNL1        0.1895
     11 C          19.1018   71.6906   -3.4092 C.3     1  UNL1        0.1764
     12 C          17.7875   71.2201   -5.2970 C.3     1  UNL1        0.2383
     13 H          16.3973   70.3083   -2.2730 H       1  UNL1        0.2105
     14 H          16.8101   68.4040   -3.9298 H       1  UNL1        0.2106
     15 O          16.0421   70.3799   -7.3526 O.2     1  UNL1       -0.2464
     16 O          19.4194   70.4231  -10.4884 O.2     1  UNL1       -0.2670
     17 N          18.1840   71.0043   -6.6599 N.ar    1  UNL1       -0.2551
     18 N          17.7251   70.4022   -8.9124 N.ar    1  UNL1       -0.2743
     19 C          17.2298   70.5815   -7.6145 C.ar    1  UNL1        0.3323
     20 C          19.5059   71.2119   -7.0383 C.ar    1  UNL1        0.0869
     21 C          19.9626   71.0353   -8.2798 C.ar    1  UNL1        0.0795
     22 C          19.0302   70.5944   -9.3373 C.ar    1  UNL1        0.2626
     23 H          17.0785   70.1076   -9.5941 H       1  UNL1        0.1734
     24 O          23.0827   72.8238   -2.3278 O.3     1  UNL1       -0.2703
     25 P          23.4557   73.6006   -3.6953 P.3     1  UNL1        0.2208
     26 O          22.5842   74.9604   -3.5992 O.co2   1  UNL1       -0.4371
     27 O          23.2179   72.7996   -4.9426 O.2     1  UNL1       -0.5170
     28 O          24.9830   74.0800   -3.4893 O.3     1  UNL1       -0.2858
     29 O          25.0189   76.0652   -2.1953 O.3     1  UNL1       -0.3258
     30 O          29.0255   75.8395   -3.1685 O.3     1  UNL1       -0.3794
     31 O          28.1833   75.2590   -0.4849 O.3     1  UNL1       -0.3794
     32 O          27.0211   75.1049   -5.1236 O.3     1  UNL1       -0.3775
     33 C          27.7349   75.3223   -2.8334 C.3     1  UNL1        0.1715
     34 C          27.3413   75.8683   -1.4595 C.3     1  UNL1        0.1694
     35 C          26.7294   75.7631   -3.8955 C.3     1  UNL1        0.1967
     36 C          25.8669   75.5769   -1.1492 C.3     1  UNL1        0.1761
     37 C          25.2903   75.4715   -3.4664 C.3     1  UNL1        0.2704
     38 H          29.6688   75.5627   -2.4983 H       1  UNL1        0.2105
     39 H          29.1114   75.4502   -0.6926 H       1  UNL1        0.2105
     40 H          27.9347   75.2976   -5.3845 H       1  UNL1        0.2106
     41 O          24.8874   75.2547    1.0062 O.3     1  UNL1       -0.3794
     42 C          25.4111   76.2484    0.1444 C.3     1  UNL1        0.1693
     43 H          24.5936   75.6675    1.8338 H       1  UNL1        0.2105
@<TRIPOS>UNITY_ATOM_ATTR
2 1
charge -1
26 1
charge -1
@<TRIPOS>BOND
     1    25    28    1
     2    25    24    1
     3    25    26    1
     4    25    27    2
     5     1     4    1
     6     1    24    1
     7     1     2    1
     8     1     3    2
     9     6    11    1
    10     6    12    1
    11    29    36    1
    12    29    37    1
    13     7     9    1
    14     7    13    1
    15     8    10    1
    16     8    14    1
    17    28    37    1
    18     4     5    1
    19    30    33    1
    20    30    38    1
    21    31    34    1
    22    31    39    1
    23    32    35    1
    24    32    40    1
    25    41    42    1
    26    41    43    1
    27    15    19    2
    28    16    22    2
    29    17    12    1
    30    17    19   ar
    31    17    20   ar
    32    18    19   ar
    33    18    22   ar
    34    18    23    1
    35     9    10    1
    36     9    11    1
    37    10    12    1
    38    11     5    1
    39    33    34    1
    40    33    35    1
    41    34    36    1
    42    35    37    1
    43    36    42    1
    44    20    21   ar
    45    21    22   ar
@<TRIPOS>MOLECULE
*****
 43 45 0 0 0
SMALL
GASTEIGER

@<TRIPOS>ATOM
      1 P          22.6121   72.7900   -4.0466 P.3     1  UNL1        0.2189
      2 O          23.0814   73.2539   -5.5238 O.co2   1  UNL1       -0.4371
      3 O          23.3998   71.6566   -3.4582 O.2     1  UNL1       -0.5170
      4 O          21.0228   72.5325   -4.2070 O.3     1  UNL1       -0.3112
      5 C          20.4271   71.4916   -3.4524 C.3     1  UNL1        0.1811
      6 O          18.4649   72.2335   -4.6242 O.3     1  UNL1       -0.3308
      7 O          16.8898   70.8942   -2.4525 O.3     1  UNL1       -0.3794
      8 O          16.7567   69.0829   -4.4868 O.3     1  UNL1       -0.3779
      9 C          18.1210   70.4941   -3.0520 C.3     1  UNL1        0.1713
     10 C          17.8752   69.9454   -4.4420 C.3     1  UNL1        0.1895
     11 C          18.9307   71.7511   -3.3449 C.3     1  UNL1        0.1764
     12 C          17.6671   71.2151   -5.2498 C.3     1  UNL1        0.2383
     13 H          16.3556   70.1081   -2.2560 H       1  UNL1        0.2105
     14 H          16.9381   68.2902   -3.9583 H       1  UNL1        0.2106
     15 O          16.0053   70.2832   -7.3349 O.2     1  UNL1       -0.2464
     16 O          19.3748   70.6966  -10.4521 O.2     1  UNL1       -0.2670
     17 N          18.0842   71.0697   -6.6159 N.ar    1  UNL1       -0.2551
     18 N          17.6844   70.4900   -8.8854 N.ar    1  UNL1       -0.2743
     19 C          17.1721   70.5922   -7.5857 C.ar    1  UNL1        0.3323
     20 C          19.3846   71.3992   -6.9823 C.ar    1  UNL1        0.0869
     21 C          19.8579   71.2948   -8.2258 C.ar    1  UNL1        0.0795
     22 C          18.9693   70.8039   -9.2989 C.ar    1  UNL1        0.2626
     23 H          17.0671   70.1592   -9.5777 H       1  UNL1        0.1734
     24 O          22.6737   74.1642   -3.1975 O.3     1  UNL1       -0.2703
     25 P          23.7943   74.7352   -2.1820 P.3     1  UNL1        0.2208
     26 O          23.3053   76.2523   -1.9050 O.co2   1  UNL1       -0.4371
     27 O          25.2018   74.6215   -2.6917 O.2     1  UNL1       -0.5170
     28 O          23.5209   73.9589   -0.7936 O.3     1  UNL1       -0.2858
     29 O          21.6023   72.6024   -0.4845 O.3     1  UNL1       -0.3258
     30 O          22.4258   73.4899    3.4633 O.3     1  UNL1       -0.3794
     31 O          22.9411   70.8461    2.4670 O.3     1  UNL1       -0.3794
     32 O          22.7831   75.5128    1.4236 O.3     1  UNL1       -0.3775
     33 C          22.7435   73.2011    2.0991 C.3     1  UNL1        0.1715
     34 C          22.1807   71.8201    1.7576 C.3     1  UNL1        0.1694
     35 C          22.1215   74.2716    1.2043 C.3     1  UNL1        0.1967
     36 C          22.2460   71.5531    0.2477 C.3     1  UNL1        0.1761
     37 C          22.1958   73.8851   -0.2740 C.3     1  UNL1        0.2704
     38 H          22.8183   72.8142    4.0368 H       1  UNL1        0.2105
     39 H          22.8919   71.0263    3.4190 H       1  UNL1        0.2105
     40 H          22.7287   75.7464    2.3630 H       1  UNL1        0.2106
     41 O          22.2516   69.1730    0.4576 O.3     1  UNL1       -0.3794
     42 C          21.5474   70.2497   -0.1333 C.3     1  UNL1        0.1693
     43 H          21.8180   68.3369    0.2239 H       1  UNL1        0.2105
@<TRIPOS>UNITY_ATOM_ATTR
2 1
charge -1
26 1
charge -1
@<TRIPOS>BOND
     1    25    28    1
     2    25    24    1
     3    25    26    1
     4    25    27    2
     5     1     4    1
     6     1    24    1
     7     1     2    1
     8     1     3    2
     9     6    11    1
    10     6    12    1
    11    29    36    1
    12    29    37    1
    13     7     9    1
    14     7    13    1
    15     8    10    1
    16     8    14    1
    17    28    37    1
    18     4     5    1
    19    30    33    1
    20    30    38    1
    21    31    34    1
    22    31    39    1
    23    32    35    1
    24    32    40    1
    25    41    42    1
    26    41    43    1
    27    15    19    2
    28    16    22    2
    29    17    12    1
    30    17    19   ar
    31    17    20   ar
    32    18    19   ar
    33    18    22   ar
    34    18    23    1
    35     9    10    1
    36     9    11    1
    37    10    12    1
    38    11     5    1
    39    33    34    1
    40    33    35    1
    41    34    36    1
    42    35    37    1
    43    36    42    1
    44    20    21   ar
    45    21    22   ar
@<TRIPOS>MOLECULE
*****
 43 45 0 0 0
SMALL
GASTEIGER

@<TRIPOS>ATOM
      1 P          22.7051   72.8852   -3.4857 P.3     1  UNL1        0.2189
      2 O          23.5494   71.5116   -3.6186 O.co2   1  UNL1       -0.4371
      3 O          22.7205   73.5091   -2.1212 O.2     1  UNL1       -0.5170
      4 O          21.2445   72.5010   -4.0662 O.3     1  UNL1       -0.3112
      5 C          20.5707   71.3827   -3.5153 C.3     1  UNL1        0.1811
      6 O          18.6244   72.2081   -4.6574 O.3     1  UNL1       -0.3308
      7 O          17.0280   70.9546   -2.4504 O.3     1  UNL1       -0.3794
      8 O          16.7757   69.1405   -4.4709 O.3     1  UNL1       -0.3779
      9 C          18.2287   70.4949   -3.0687 C.3     1  UNL1        0.1713
     10 C          17.9333   69.9506   -4.4508 C.3     1  UNL1        0.1895
     11 C          19.0900   71.7116   -3.3834 C.3     1  UNL1        0.1764
     12 C          17.7697   71.2243   -5.2627 C.3     1  UNL1        0.2383
     13 H          16.4617   70.1951   -2.2398 H       1  UNL1        0.2105
     14 H          16.9297   68.3431   -3.9406 H       1  UNL1        0.2106
     15 O          16.0330   70.3482   -7.3107 O.2     1  UNL1       -0.2464
     16 O          19.3594   70.6001  -10.4907 O.2     1  UNL1       -0.2670
     17 N          18.1554   71.0524   -6.6349 N.ar    1  UNL1       -0.2551
     18 N          17.6907   70.4745   -8.8925 N.ar    1  UNL1       -0.2743
     19 C          17.2068   70.6067   -7.5846 C.ar    1  UNL1        0.3323
     20 C          19.4615   71.3252   -7.0270 C.ar    1  UNL1        0.0869
     21 C          19.9074   71.1928   -8.2780 C.ar    1  UNL1        0.0795
     22 C          18.9798   70.7320   -9.3313 C.ar    1  UNL1        0.2626
     23 H          17.0477   70.1650   -9.5711 H       1  UNL1        0.1734
     24 O          23.3291   73.8101   -4.6554 O.3     1  UNL1       -0.2703
     25 P          22.9797   75.3199   -5.1151 P.3     1  UNL1        0.2208
     26 O          24.0519   76.2141   -4.2976 O.co2   1  UNL1       -0.4371
     27 O          21.5480   75.7145   -4.8945 O.2     1  UNL1       -0.5170
     28 O          23.4671   75.4023   -6.6515 O.3     1  UNL1       -0.2858
     29 O          22.3976   76.5793   -8.4086 O.3     1  UNL1       -0.3258
     30 O          24.0505   73.4901  -10.5940 O.3     1  UNL1       -0.3794
     31 O          25.1619   76.1298  -10.8055 O.3     1  UNL1       -0.3794
     32 O          22.9576   72.9746   -7.9635 O.3     1  UNL1       -0.3775
     33 C          23.9976   74.4625   -9.5465 C.3     1  UNL1        0.1715
     34 C          23.9103   75.8503  -10.1845 C.3     1  UNL1        0.1694
     35 C          22.7715   74.1926   -8.6764 C.3     1  UNL1        0.1967
     36 C          23.5828   76.9223   -9.1363 C.3     1  UNL1        0.1761
     37 C          22.5062   75.3419   -7.7023 C.3     1  UNL1        0.2704
     38 H          24.8271   73.6555  -11.1499 H       1  UNL1        0.2105
     39 H          25.3571   75.4454  -11.4648 H       1  UNL1        0.2105
     40 H          23.1243   72.2549   -8.5913 H       1  UNL1        0.2106
     41 O          22.0635   78.2710  -10.3939 O.3     1  UNL1       -0.3794
     42 C          23.3357   78.2882   -9.7729 C.3     1  UNL1        0.1693
     43 H          21.8925   79.1341  -10.8032 H       1  UNL1        0.2105
@<TRIPOS>UNITY_ATOM_ATTR
2 1
charge -1
26 1
charge -1
@<TRIPOS>BOND
     1    25    28    1
     2    25    24    1
     3    25    26    1
     4    25    27    2
     5     1     4    1
     6     1    24    1
     7     1     2    1
     8     1     3    2
     9     6    11    1
    10     6    12    1
    11    29    36    1
    12    29    37    1
    13     7     9    1
    14     7    13    1
    15     8    10    1
    16     8    14    1
    17    28    37    1
    18     4     5    1
    19    30    33    1
    20    30    38    1
    21    31    34    1
    22    31    39    1
    23    32    35    1
    24    32    40    1
    25    41    42    1
    26    41    43    1
    27    15    19    2
    28    16    22    2
    29    17    12    1
    30    17    19   ar
    31    17    20   ar
    32    18    19   ar
    33    18    22   ar
    34    18    23    1
    35     9    10    1
    36     9    11    1
    37    10    12    1
    38    11     5    1
    39    33    34    1
    40    33    35    1
    41    34    36    1
    42    35    37    1
    43    36    42    1
    44    20    21   ar
    45    21    22   ar
@<TRIPOS>MOLECULE
*****
 43 45 0 0 0
SMALL
GASTEIGER

@<TRIPOS>ATOM
      1 P          21.5623   73.0907   -6.2161 P.3     1  UNL1        0.2189
      2 O          21.3481   74.6914   -6.1191 O.co2   1  UNL1       -0.4371
      3 O          22.7643   72.6587   -7.0034 O.2     1  UNL1       -0.5170
      4 O          20.1377   72.5399   -6.7498 O.3     1  UNL1       -0.3112
      5 C          19.9180   71.1402   -6.7684 C.3     1  UNL1        0.1811
      6 O          17.7163   70.8383   -7.6825 O.3     1  UNL1       -0.3308
      7 O          19.0050   71.0870  -10.3784 O.3     1  UNL1       -0.3794
      8 O          17.9207   73.5615  -10.0074 O.3     1  UNL1       -0.3779
      9 C          19.3204   71.7623   -9.1619 C.3     1  UNL1        0.1713
     10 C          18.2765   72.8171   -8.8602 C.3     1  UNL1        0.1895
     11 C          19.1208   70.7799   -8.0146 C.3     1  UNL1        0.1764
     12 C          17.1268   71.9792   -8.3271 C.3     1  UNL1        0.2383
     13 H          19.1254   71.6944  -11.1258 H       1  UNL1        0.2105
     14 H          18.6849   74.0775  -10.3081 H       1  UNL1        0.2106
     15 O          15.0828   73.8065   -9.0062 O.2     1  UNL1       -0.2464
     16 O          14.1212   74.6577   -4.5799 O.2     1  UNL1       -0.2670
     17 N          16.3261   72.6923   -7.3722 N.ar    1  UNL1       -0.2551
     18 N          14.6055   74.2287   -6.8017 N.ar    1  UNL1       -0.2743
     19 C          15.3261   73.5879   -7.8176 C.ar    1  UNL1        0.3323
     20 C          16.5358   72.5002   -6.0110 C.ar    1  UNL1        0.0869
     21 C          15.8410   73.1200   -5.0548 C.ar    1  UNL1        0.0795
     22 C          14.7776   74.0720   -5.4355 C.ar    1  UNL1        0.2626
     23 H          13.9039   74.8575   -7.0883 H       1  UNL1        0.1734
     24 O          21.5722   72.6308   -4.6665 O.3     1  UNL1       -0.2703
     25 P          22.7972   72.3648   -3.6459 P.3     1  UNL1        0.2208
     26 O          23.9739   73.3132   -4.2234 O.co2   1  UNL1       -0.4371
     27 O          23.1790   70.9196   -3.5063 O.2     1  UNL1       -0.5170
     28 O          22.3424   73.0725   -2.2685 O.3     1  UNL1       -0.2858
     29 O          20.2707   72.7183   -1.1734 O.3     1  UNL1       -0.3258
     30 O          20.8362   68.9448   -2.7520 O.3     1  UNL1       -0.3794
     31 O          18.8381   70.6701   -3.8829 O.3     1  UNL1       -0.3794
     32 O          23.0936   70.4271   -1.7095 O.3     1  UNL1       -0.3775
     33 C          20.9125   70.3728   -2.7299 C.3     1  UNL1        0.1715
     34 C          19.4894   70.9277   -2.6421 C.3     1  UNL1        0.1694
     35 C          21.7357   70.8100   -1.5197 C.3     1  UNL1        0.1967
     36 C          19.4993   72.4335   -2.3462 C.3     1  UNL1        0.1761
     37 C          21.6380   72.3185   -1.2853 C.3     1  UNL1        0.2704
     38 H          20.3152   68.6606   -3.5184 H       1  UNL1        0.2105
     39 H          18.8392   69.7159   -4.0581 H       1  UNL1        0.2105
     40 H          23.1420   69.4701   -1.8565 H       1  UNL1        0.2106
     41 O          17.1949   71.8851   -2.0331 O.3     1  UNL1       -0.3794
     42 C          18.0938   72.9769   -2.0985 C.3     1  UNL1        0.1693
     43 H          16.2963   72.2159   -1.8754 H       1  UNL1        0.2105
@<TRIPOS>UNITY_ATOM_ATTR
2 1
charge -1
26 1
charge -1
@<TRIPOS>BOND
     1    25    28    1
     2    25    24    1
     3    25    26    1
     4    25    27    2
     5     1     4    1
     6     1    24    1
     7     1     2    1
     8     1     3    2
     9     6    11    1
    10     6    12    1
    11    29    36    1
    12    29    37    1
    13     7     9    1
    14     7    13    1
    15     8    10    1
    16     8    14    1
    17    28    37    1
    18     4     5    1
    19    30    33    1
    20    30    38    1
    21    31    34    1
    22    31    39    1
    23    32    35    1
    24    32    40    1
    25    41    42    1
    26    41    43    1
    27    15    19    2
    28    16    22    2
    29    17    12    1
    30    17    19   ar
    31    17    20   ar
    32    18    19   ar
    33    18    22   ar
    34    18    23    1
    35     9    10    1
    36     9    11    1
    37    10    12    1
    38    11     5    1
    39    33    34    1
    40    33    35    1
    41    34    36    1
    42    35    37    1
    43    36    42    1
    44    20    21   ar
    45    21    22   ar
@<TRIPOS>MOLECULE
*****
 43 45 0 0 0
SMALL
GASTEIGER

@<TRIPOS>ATOM
      1 P          22.2236   70.5204   -0.2868 P.3     1  UNL1        0.2189
      2 O          20.9542   69.6899   -0.8492 O.co2   1  UNL1       -0.4371
      3 O          23.4671   69.7087   -0.0720 O.2     1  UNL1       -0.5170
      4 O          21.6441   71.2775    1.0205 O.3     1  UNL1       -0.3112
      5 C          21.2495   72.6328    0.8975 C.3     1  UNL1        0.1811
      6 O          21.2678   74.5429    2.3552 O.3     1  UNL1       -0.3308
      7 O          23.7727   73.3874    3.5305 O.3     1  UNL1       -0.3794
      8 O          21.8785   72.6879    5.3634 O.3     1  UNL1       -0.3779
      9 C          22.6109   72.7165    3.0452 C.3     1  UNL1        0.1713
     10 C          21.4662   72.8722    4.0244 C.3     1  UNL1        0.1895
     11 C          22.0986   73.4832    1.8323 C.3     1  UNL1        0.1764
     12 C          21.0038   74.2922    3.7453 C.3     1  UNL1        0.2383
     13 H          24.1183   72.9157    4.3051 H       1  UNL1        0.2105
     14 H          22.1632   71.7695    5.4906 H       1  UNL1        0.2106
     15 O          19.2283   75.6126    1.9897 O.2     1  UNL1       -0.2464
     16 O          15.6420   74.9160    4.7994 O.2     1  UNL1       -0.2670
     17 N          19.6008   74.4699    3.9929 N.ar    1  UNL1       -0.2551
     18 N          17.4440   75.2645    3.3901 N.ar    1  UNL1       -0.2743
     19 C          18.7972   75.1487    3.0473 C.ar    1  UNL1        0.3323
     20 C          19.0351   73.9736    5.1623 C.ar    1  UNL1        0.0869
     21 C          17.7432   74.0936    5.4749 C.ar    1  UNL1        0.0795
     22 C          16.8348   74.7894    4.5406 C.ar    1  UNL1        0.2626
     23 H          16.8650   75.7340    2.7465 H       1  UNL1        0.1734
     24 O          22.3793   71.7181   -1.3611 O.3     1  UNL1       -0.2703
     25 P          22.5947   71.6861   -2.9628 P.3     1  UNL1        0.2208
     26 O          23.5739   70.4166   -3.1802 O.co2   1  UNL1       -0.4371
     27 O          23.1109   72.9722   -3.5401 O.2     1  UNL1       -0.5170
     28 O          21.1717   71.2097   -3.5570 O.3     1  UNL1       -0.2858
     29 O          19.8548   72.0811   -5.3242 O.3     1  UNL1       -0.3258
     30 O          16.8377   71.0424   -2.7033 O.3     1  UNL1       -0.3794
     31 O          17.2528   69.4815   -5.0780 O.3     1  UNL1       -0.3794
     32 O          19.3062   72.1660   -1.6914 O.3     1  UNL1       -0.3775
     33 C          18.1040   70.9036   -3.3534 C.3     1  UNL1        0.1715
     34 C          17.8576   70.7524   -4.8559 C.3     1  UNL1        0.1694
     35 C          18.9496   72.1436   -3.0694 C.3     1  UNL1        0.1967
     36 C          19.1681   70.8660   -5.6463 C.3     1  UNL1        0.1761
     37 C          20.2050   72.1833   -3.9426 C.3     1  UNL1        0.2704
     38 H          16.2961   70.2581   -2.8793 H       1  UNL1        0.2105
     39 H          16.4266   69.4226   -4.5729 H       1  UNL1        0.2105
     40 H          18.5029   72.1408   -1.1492 H       1  UNL1        0.2106
     41 O          20.1016   70.4189   -7.7998 O.3     1  UNL1       -0.3794
     42 C          18.9274   70.8759   -7.1543 C.3     1  UNL1        0.1693
     43 H          19.9630   70.4195   -8.7603 H       1  UNL1        0.2105
@<TRIPOS>UNITY_ATOM_ATTR
2 1
charge -1
26 1
charge -1
@<TRIPOS>BOND
     1    25    28    1
     2    25    24    1
     3    25    26    1
     4    25    27    2
     5     1     4    1
     6     1    24    1
     7     1     2    1
     8     1     3    2
     9     6    11    1
    10     6    12    1
    11    29    36    1
    12    29    37    1
    13     7     9    1
    14     7    13    1
    15     8    10    1
    16     8    14    1
    17    28    37    1
    18     4     5    1
    19    30    33    1
    20    30    38    1
    21    31    34    1
    22    31    39    1
    23    32    35    1
    24    32    40    1
    25    41    42    1
    26    41    43    1
    27    15    19    2
    28    16    22    2
    29    17    12    1
    30    17    19   ar
    31    17    20   ar
    32    18    19   ar
    33    18    22   ar
    34    18    23    1
    35     9    10    1
    36     9    11    1
    37    10    12    1
    38    11     5    1
    39    33    34    1
    40    33    35    1
    41    34    36    1
    42    35    37    1
    43    36    42    1
    44    20    21   ar
    45    21    22   ar
@<TRIPOS>MOLECULE
*****
 43 45 0 0 0
SMALL
GASTEIGER

@<TRIPOS>ATOM
      1 P          22.2990   72.9134   -4.8730 P.3     1  UNL1        0.2189
      2 O          21.3058   74.1806   -4.7140 O.co2   1  UNL1       -0.4371
      3 O          23.6767   73.1138   -4.3133 O.2     1  UNL1       -0.5170
      4 O          22.2260   72.5581   -6.4498 O.3     1  UNL1       -0.3112
      5 C          21.2104   73.1612   -7.2325 C.3     1  UNL1        0.1811
      6 O          19.8951   71.1513   -7.2982 O.3     1  UNL1       -0.3308
      7 O          19.4234   71.7776  -10.1924 O.3     1  UNL1       -0.3794
      8 O          17.1061   72.6082   -9.0191 O.3     1  UNL1       -0.3779
      9 C          19.5358   72.6679   -9.0833 C.3     1  UNL1        0.1713
     10 C          18.2820   72.6127   -8.2356 C.3     1  UNL1        0.1895
     11 C          20.5864   72.1049   -8.1343 C.3     1  UNL1        0.1764
     12 C          18.4778   71.3167   -7.4674 C.3     1  UNL1        0.2383
     13 H          18.7582   72.1163  -10.8126 H       1  UNL1        0.2105
     14 H          17.0265   73.4535   -9.4879 H       1  UNL1        0.2106
     15 O          16.3543   73.0394   -6.7597 O.2     1  UNL1       -0.2464
     16 O          16.1647   71.3454   -2.4777 O.2     1  UNL1       -0.2670
     17 N          17.8542   71.3468   -6.1745 N.ar    1  UNL1       -0.2551
     18 N          16.2615   72.1944   -4.6282 N.ar    1  UNL1       -0.2743
     19 C          16.7960   72.2505   -5.9217 C.ar    1  UNL1        0.3323
     20 C          18.2924   70.4865   -5.1736 C.ar    1  UNL1        0.0869
     21 C          17.7729   70.4463   -3.9449 C.ar    1  UNL1        0.0795
     22 C          16.6635   71.3581   -3.5988 C.ar    1  UNL1        0.2626
     23 H          15.5234   72.8152   -4.4290 H       1  UNL1        0.1734
     24 O          21.4641   71.7093   -4.1902 O.3     1  UNL1       -0.2703
     25 P          21.8514   70.6944   -2.9933 P.3     1  UNL1        0.2208
     26 O          23.4548   70.5391   -3.1426 O.co2   1  UNL1       -0.4371
     27 O          21.0984   69.3958   -3.0197 O.2     1  UNL1       -0.5170
     28 O          21.6493   71.5574   -1.6444 O.3     1  UNL1       -0.2858
     29 O          23.2712   72.9094   -0.5683 O.3     1  UNL1       -0.3258
     30 O          21.1087   71.7137    2.7400 O.3     1  UNL1       -0.3794
     31 O          20.8867   74.4194    1.8031 O.3     1  UNL1       -0.3794
     32 O          21.5937   69.8480    0.5805 O.3     1  UNL1       -0.3775
     33 C          21.2958   72.1017    1.3763 C.3     1  UNL1        0.1715
     34 C          21.8898   73.5115    1.3560 C.3     1  UNL1        0.1694
     35 C          22.2409   71.1102    0.7003 C.3     1  UNL1        0.1967
     36 C          22.3655   73.8920   -0.0525 C.3     1  UNL1        0.1761
     37 C          22.6922   71.6073   -0.6742 C.3     1  UNL1        0.2704
     38 H          20.5091   72.3389    3.1749 H       1  UNL1        0.2105
     39 H          20.5947   74.1677    2.6933 H       1  UNL1        0.2105
     40 H          21.3132   69.5441    1.4573 H       1  UNL1        0.2106
     41 O          23.2051   75.6733   -1.4056 O.3     1  UNL1       -0.3794
     42 C          23.1033   75.2290   -0.0653 C.3     1  UNL1        0.1693
     43 H          23.6722   76.5236   -1.4292 H       1  UNL1        0.2105
@<TRIPOS>UNITY_ATOM_ATTR
2 1
charge -1
26 1
charge -1
@<TRIPOS>BOND
     1    25    28    1
     2    25    24    1
     3    25    26    1
     4    25    27    2
     5     1     4    1
     6     1    24    1
     7     1     2    1
     8     1     3    2
     9     6    11    1
    10     6    12    1
    11    29    36    1
    12    29    37    1
    13     7     9    1
    14     7    13    1
    15     8    10    1
    16     8    14    1
    17    28    37    1
    18     4     5    1
    19    30    33    1
    20    30    38    1
    21    31    34    1
    22    31    39    1
    23    32    35    1
    24    32    40    1
    25    41    42    1
    26    41    43    1
    27    15    19    2
    28    16    22    2
    29    17    12    1
    30    17    19   ar
    31    17    20   ar
    32    18    19   ar
    33    18    22   ar
    34    18    23    1
    35     9    10    1
    36     9    11    1
    37    10    12    1
    38    11     5    1
    39    33    34    1
    40    33    35    1
    41    34    36    1
    42    35    37    1
    43    36    42    1
    44    20    21   ar
    45    21    22   ar
@<TRIPOS>MOLECULE
*****
 43 45 0 0 0
SMALL
GASTEIGER

@<TRIPOS>ATOM
      1 P          21.7406   74.3943   -5.6258 P.3     1  UNL1        0.2189
      2 O          20.8727   75.7361   -5.3730 O.co2   1  UNL1       -0.4371
      3 O          23.1696   74.6285   -6.0189 O.2     1  UNL1       -0.5170
      4 O          20.8511   73.5495   -6.6808 O.3     1  UNL1       -0.3112
      5 C          20.0385   74.2582   -7.6002 C.3     1  UNL1        0.1811
      6 O          19.6422   71.9568   -8.1663 O.3     1  UNL1       -0.3308
      7 O          17.9501   72.9956  -10.4132 O.3     1  UNL1       -0.3794
      8 O          16.0916   72.2909   -8.5461 O.3     1  UNL1       -0.3779
      9 C          18.1186   73.5159   -9.0956 C.3     1  UNL1        0.1713
     10 C          17.3790   72.6560   -8.0921 C.3     1  UNL1        0.1895
     11 C          19.5712   73.3016   -8.6886 C.3     1  UNL1        0.1764
     12 C          18.3097   71.4633   -7.9526 C.3     1  UNL1        0.2383
     13 H          17.0300   73.1214  -10.6951 H       1  UNL1        0.2105
     14 H          15.5373   73.0836   -8.6185 H       1  UNL1        0.2106
     15 O          16.1111   69.9642   -7.0055 O.2     1  UNL1       -0.2464
     16 O          18.1453   69.2055   -2.9401 O.2     1  UNL1       -0.2670
     17 N          18.2383   70.8622   -6.6507 N.ar    1  UNL1       -0.2551
     18 N          17.1259   69.5875   -4.9821 N.ar    1  UNL1       -0.2743
     19 C          17.0884   70.1304   -6.2728 C.ar    1  UNL1        0.3323
     20 C          19.3007   71.0009   -5.7641 C.ar    1  UNL1        0.0869
     21 C          19.3202   70.4780   -4.5363 C.ar    1  UNL1        0.0795
     22 C          18.1578   69.6988   -4.0637 C.ar    1  UNL1        0.2626
     23 H          16.3355   69.0739   -4.6969 H       1  UNL1        0.1734
     24 O          21.5481   73.5718   -4.2476 O.3     1  UNL1       -0.2703
     25 P          20.6967   73.9145   -2.9170 P.3     1  UNL1        0.2208
     26 O          19.1630   73.7523   -3.4058 O.co2   1  UNL1       -0.4371
     27 O          21.0151   75.2500   -2.3097 O.2     1  UNL1       -0.5170
     28 O          20.9472   72.6571   -1.9366 O.3     1  UNL1       -0.2858
     29 O          22.7015   73.2563   -0.4601 O.3     1  UNL1       -0.3258
     30 O          22.0885   69.3679    0.7872 O.3     1  UNL1       -0.3794
     31 O          21.2426   71.5437    2.4601 O.3     1  UNL1       -0.3794
     32 O          21.9179   70.0256   -2.0267 O.3     1  UNL1       -0.3775
     33 C          21.7044   70.6523    0.2891 C.3     1  UNL1        0.1715
     34 C          22.0932   71.7056    1.3284 C.3     1  UNL1        0.1694
     35 C          22.4242   70.9106   -1.0333 C.3     1  UNL1        0.1967
     36 C          21.9585   73.1236    0.7573 C.3     1  UNL1        0.1761
     37 C          22.2674   72.3629   -1.4874 C.3     1  UNL1        0.2704
     38 H          21.6345   69.1975    1.6265 H       1  UNL1        0.2105
     39 H          21.3368   70.6440    2.8108 H       1  UNL1        0.2105
     40 H          22.0232   69.1095   -1.7274 H       1  UNL1        0.2106
     41 O          23.3690   73.5540    2.6372 O.3     1  UNL1       -0.3794
     42 C          22.4901   74.1815    1.7218 C.3     1  UNL1        0.1693
     43 H          23.7154   74.2154    3.2572 H       1  UNL1        0.2105
@<TRIPOS>UNITY_ATOM_ATTR
2 1
charge -1
26 1
charge -1
@<TRIPOS>BOND
     1    25    28    1
     2    25    24    1
     3    25    26    1
     4    25    27    2
     5     1     4    1
     6     1    24    1
     7     1     2    1
     8     1     3    2
     9     6    11    1
    10     6    12    1
    11    29    36    1
    12    29    37    1
    13     7     9    1
    14     7    13    1
    15     8    10    1
    16     8    14    1
    17    28    37    1
    18     4     5    1
    19    30    33    1
    20    30    38    1
    21    31    34    1
    22    31    39    1
    23    32    35    1
    24    32    40    1
    25    41    42    1
    26    41    43    1
    27    15    19    2
    28    16    22    2
    29    17    12    1
    30    17    19   ar
    31    17    20   ar
    32    18    19   ar
    33    18    22   ar
    34    18    23    1
    35     9    10    1
    36     9    11    1
    37    10    12    1
    38    11     5    1
    39    33    34    1
    40    33    35    1
    41    34    36    1
    42    35    37    1
    43    36    42    1
    44    20    21   ar
    45    21    22   ar
@<TRIPOS>MOLECULE
*****
 43 45 0 0 0
SMALL
GASTEIGER

@<TRIPOS>ATOM
      1 P          16.6726   71.8648   -3.6719 P.3     1  UNL1        0.2189
      2 O          15.4616   72.6026   -2.8931 O.co2   1  UNL1       -0.4371
      3 O          16.6671   70.3672   -3.5782 O.2     1  UNL1       -0.5170
      4 O          18.0003   72.5991   -3.1099 O.3     1  UNL1       -0.3112
      5 C          18.7582   71.9491   -2.1045 C.3     1  UNL1        0.1811
      6 O          21.1225   72.1322   -2.4920 O.3     1  UNL1       -0.3308
      7 O          21.0576   69.2005   -3.1179 O.3     1  UNL1       -0.3794
      8 O          22.0226   69.2426   -0.5677 O.3     1  UNL1       -0.3779
      9 C          20.3094   69.9330   -2.1488 C.3     1  UNL1        0.1713
     10 C          21.1928   70.3103   -0.9779 C.3     1  UNL1        0.1895
     11 C          19.9739   71.2940   -2.7457 C.3     1  UNL1        0.1764
     12 C          21.9812   71.4800   -1.5422 C.3     1  UNL1        0.2383
     13 H          21.2832   68.3273   -2.7594 H       1  UNL1        0.2105
     14 H          21.4746   68.5236   -0.2165 H       1  UNL1        0.2106
     15 O          21.2738   71.2663    1.1839 O.2     1  UNL1       -0.2464
     16 O          23.4864   75.1654    2.2527 O.2     1  UNL1       -0.2670
     17 N          22.3593   72.4250   -0.5296 N.ar    1  UNL1       -0.2551
     18 N          22.3763   73.2079    1.7139 N.ar    1  UNL1       -0.2743
     19 C          21.9515   72.2257    0.8100 C.ar    1  UNL1        0.3323
     20 C          23.1263   73.5343   -0.8687 C.ar    1  UNL1        0.0869
     21 C          23.5220   74.4624    0.0050 C.ar    1  UNL1        0.0795
     22 C          23.1383   74.3288    1.4252 C.ar    1  UNL1        0.2626
     23 H          22.1037   73.0901    2.6529 H       1  UNL1        0.1734
     24 O          16.5450   72.4453   -5.1752 O.3     1  UNL1       -0.2703
     25 P          17.5490   72.3503   -6.4385 P.3     1  UNL1        0.2208
     26 O          18.0495   73.8768   -6.6302 O.co2   1  UNL1       -0.4371
     27 O          16.9371   71.7404   -7.6663 O.2     1  UNL1       -0.5170
     28 O          18.8417   71.5653   -5.8749 O.3     1  UNL1       -0.2858
     29 O          19.8182   70.5474   -7.7794 O.3     1  UNL1       -0.3258
     30 O          20.2249   74.5099   -8.8675 O.3     1  UNL1       -0.3794
     31 O          18.2756   72.8686  -10.1921 O.3     1  UNL1       -0.3794
     32 O          20.6222   73.7215   -6.1107 O.3     1  UNL1       -0.3775
     33 C          19.5853   73.3850   -8.2585 C.3     1  UNL1        0.1715
     34 C          19.2985   72.3490   -9.3471 C.3     1  UNL1        0.1694
     35 C          20.5102   72.8021   -7.1917 C.3     1  UNL1        0.1967
     36 C          18.8590   71.0113   -8.7368 C.3     1  UNL1        0.1761
     37 C          20.0073   71.4485   -6.6866 C.3     1  UNL1        0.2704
     38 H          19.6426   74.8851   -9.5456 H       1  UNL1        0.2105
     39 H          18.5655   73.7135  -10.5707 H       1  UNL1        0.2105
     40 H          20.9416   74.5742   -6.4434 H       1  UNL1        0.2106
     41 O          19.4562   70.3052  -10.9399 O.3     1  UNL1       -0.3794
     42 C          18.7200   69.9183   -9.7943 C.3     1  UNL1        0.1693
     43 H          19.3771   69.6189  -11.6214 H       1  UNL1        0.2105
@<TRIPOS>UNITY_ATOM_ATTR
2 1
charge -1
26 1
charge -1
@<TRIPOS>BOND
     1    25    28    1
     2    25    24    1
     3    25    26    1
     4    25    27    2
     5     1     4    1
     6     1    24    1
     7     1     2    1
     8     1     3    2
     9     6    11    1
    10     6    12    1
    11    29    36    1
    12    29    37    1
    13     7     9    1
    14     7    13    1
    15     8    10    1
    16     8    14    1
    17    28    37    1
    18     4     5    1
    19    30    33    1
    20    30    38    1
    21    31    34    1
    22    31    39    1
    23    32    35    1
    24    32    40    1
    25    41    42    1
    26    41    43    1
    27    15    19    2
    28    16    22    2
    29    17    12    1
    30    17    19   ar
    31    17    20   ar
    32    18    19   ar
    33    18    22   ar
    34    18    23    1
    35     9    10    1
    36     9    11    1
    37    10    12    1
    38    11     5    1
    39    33    34    1
    40    33    35    1
    41    34    36    1
    42    35    37    1
    43    36    42    1
    44    20    21   ar
    45    21    22   ar
@<TRIPOS>MOLECULE
*****
 43 45 0 0 0
SMALL
GASTEIGER

@<TRIPOS>ATOM
      1 P          20.4682   72.9965   -4.8551 P.3     1  UNL1        0.2189
      2 O          19.2642   73.0786   -3.7776 O.co2   1  UNL1       -0.4371
      3 O          21.1645   74.2974   -5.1277 O.2     1  UNL1       -0.5170
      4 O          19.7929   72.2786   -6.1382 O.3     1  UNL1       -0.3112
      5 C          18.4042   71.9992   -6.1035 C.3     1  UNL1        0.1811
      6 O          18.5700   74.1410   -7.1803 O.3     1  UNL1       -0.3308
      7 O          16.1616   73.3205   -8.7670 O.3     1  UNL1       -0.3794
      8 O          18.2045   72.8882  -10.5209 O.3     1  UNL1       -0.3779
      9 C          17.2557   72.5260   -8.3118 C.3     1  UNL1        0.1713
     10 C          18.4918   72.8099   -9.1395 C.3     1  UNL1        0.1895
     11 C          17.6684   73.0388   -6.9378 C.3     1  UNL1        0.1764
     12 C          18.9591   74.1358   -8.5635 C.3     1  UNL1        0.2383
     13 H          15.8803   73.0115   -9.6429 H       1  UNL1        0.2105
     14 H          17.9116   72.0204  -10.8401 H       1  UNL1        0.2106
     15 O          20.7663   72.0622   -9.2056 O.2     1  UNL1       -0.2464
     16 O          24.4013   74.8740   -8.8569 O.2     1  UNL1       -0.2670
     17 N          20.3831   74.2981   -8.6479 N.ar    1  UNL1       -0.2551
     18 N          22.5748   73.4640   -9.0317 N.ar    1  UNL1       -0.2743
     19 C          21.2017   73.1926   -8.9768 C.ar    1  UNL1        0.3323
     20 C          20.9542   75.5429   -8.4063 C.ar    1  UNL1        0.0869
     21 C          22.2656   75.7849   -8.4614 C.ar    1  UNL1        0.0795
     22 C          23.1905   74.6835   -8.7984 C.ar    1  UNL1        0.2626
     23 H          23.1646   72.7088   -9.2585 H       1  UNL1        0.1734
     24 O          21.4195   71.8383   -4.2496 O.3     1  UNL1       -0.2703
     25 P          22.7887   71.9281   -3.3950 P.3     1  UNL1        0.2208
     26 O          23.7132   72.9193   -4.2784 O.co2   1  UNL1       -0.4371
     27 O          23.4165   70.5973   -3.0971 O.2     1  UNL1       -0.5170
     28 O          22.3987   72.7912   -2.0882 O.3     1  UNL1       -0.2858
     29 O          21.5446   71.3370   -0.4232 O.3     1  UNL1       -0.3258
     30 O          20.8610   74.9545    1.4468 O.3     1  UNL1       -0.3794
     31 O          22.9583   73.2396    2.4000 O.3     1  UNL1       -0.3794
     32 O          20.4646   74.7082   -1.4101 O.3     1  UNL1       -0.3775
     33 C          21.5710   74.0294    0.6188 C.3     1  UNL1        0.1715
     34 C          21.9598   72.8215    1.4735 C.3     1  UNL1        0.1694
     35 C          20.6700   73.6018   -0.5382 C.3     1  UNL1        0.1967
     36 C          22.4864   71.6730    0.6025 C.3     1  UNL1        0.1761
     37 C          21.2634   72.4217   -1.3098 C.3     1  UNL1        0.2704
     38 H          21.4277   75.2304    2.1832 H       1  UNL1        0.2105
     39 H          22.6132   73.9654    2.9435 H       1  UNL1        0.2105
     40 H          20.0885   75.4485   -0.9098 H       1  UNL1        0.2106
     41 O          22.1402   69.3126    0.7354 O.3     1  UNL1       -0.3794
     42 C          22.7315   70.4041    1.4161 C.3     1  UNL1        0.1693
     43 H          22.2886   68.4980    1.2416 H       1  UNL1        0.2105
@<TRIPOS>UNITY_ATOM_ATTR
2 1
charge -1
26 1
charge -1
@<TRIPOS>BOND
     1    25    28    1
     2    25    24    1
     3    25    26    1
     4    25    27    2
     5     1     4    1
     6     1    24    1
     7     1     2    1
     8     1     3    2
     9     6    11    1
    10     6    12    1
    11    29    36    1
    12    29    37    1
    13     7     9    1
    14     7    13    1
    15     8    10    1
    16     8    14    1
    17    28    37    1
    18     4     5    1
    19    30    33    1
    20    30    38    1
    21    31    34    1
    22    31    39    1
    23    32    35    1
    24    32    40    1
    25    41    42    1
    26    41    43    1
    27    15    19    2
    28    16    22    2
    29    17    12    1
    30    17    19   ar
    31    17    20   ar
    32    18    19   ar
    33    18    22   ar
    34    18    23    1
    35     9    10    1
    36     9    11    1
    37    10    12    1
    38    11     5    1
    39    33    34    1
    40    33    35    1
    41    34    36    1
    42    35    37    1
    43    36    42    1
    44    20    21   ar
    45    21    22   ar
@<TRIPOS>MOLECULE
*****
 43 45 0 0 0
SMALL
GASTEIGER

@<TRIPOS>ATOM
      1 P          22.5791   73.2480   -4.6613 P.3     1  UNL1        0.2189
      2 O          21.8719   74.7030   -4.6547 O.co2   1  UNL1       -0.4371
      3 O          24.0046   73.2340   -4.1931 O.2     1  UNL1       -0.5170
      4 O          22.3275   72.7007   -6.1630 O.3     1  UNL1       -0.3112
      5 C          21.0716   72.9477   -6.7711 C.3     1  UNL1        0.1811
      6 O          19.0025   71.7272   -6.8266 O.3     1  UNL1       -0.3308
      7 O          20.3842   69.8369   -8.6996 O.3     1  UNL1       -0.3794
      8 O          18.8962   71.3706  -10.3937 O.3     1  UNL1       -0.3779
      9 C          20.5176   71.2527   -8.5858 C.3     1  UNL1        0.1713
     10 C          19.3021   71.9438   -9.1675 C.3     1  UNL1        0.1895
     11 C          20.4145   71.6167   -7.1099 C.3     1  UNL1        0.1764
     12 C          18.2741   71.7543   -8.0650 C.3     1  UNL1        0.2383
     13 H          20.4471   69.5804   -9.6335 H       1  UNL1        0.2105
     14 H          19.5831   71.5176  -11.0625 H       1  UNL1        0.2106
     15 O          15.8556   71.6688   -6.6085 O.2     1  UNL1       -0.2464
     16 O          14.6760   75.9127   -7.9646 O.2     1  UNL1       -0.2670
     17 N          17.3165   72.8231   -8.0194 N.ar    1  UNL1       -0.2551
     18 N          15.2703   73.7821   -7.2848 N.ar    1  UNL1       -0.2743
     19 C          16.1329   72.6788   -7.2586 C.ar    1  UNL1        0.3323
     20 C          17.5554   73.9981   -8.7237 C.ar    1  UNL1        0.0869
     21 C          16.7221   75.0405   -8.7394 C.ar    1  UNL1        0.0795
     22 C          15.4628   74.9711   -7.9703 C.ar    1  UNL1        0.2626
     23 H          14.4392   73.7043   -6.7623 H       1  UNL1        0.1734
     24 O          21.5705   72.3495   -3.7734 O.3     1  UNL1       -0.2703
     25 P          21.7512   70.8817   -3.1209 P.3     1  UNL1        0.2208
     26 O          23.3391   70.6057   -3.2622 O.co2   1  UNL1       -0.4371
     27 O          20.8816   69.8236   -3.7358 O.2     1  UNL1       -0.5170
     28 O          21.5155   71.1056   -1.5400 O.3     1  UNL1       -0.2858
     29 O          23.1518   72.6295   -0.7545 O.3     1  UNL1       -0.3258
     30 O          21.3496   71.6863    2.8390 O.3     1  UNL1       -0.3794
     31 O          20.9063   74.2698    1.6655 O.3     1  UNL1       -0.3794
     32 O          21.7422   69.6321    0.8375 O.3     1  UNL1       -0.3775
     33 C          21.3972   71.9405    1.4324 C.3     1  UNL1        0.1715
     34 C          21.9129   73.3651    1.2198 C.3     1  UNL1        0.1694
     35 C          22.3307   70.9268    0.7733 C.3     1  UNL1        0.1967
     36 C          22.2442   73.6197   -0.2569 C.3     1  UNL1        0.1761
     37 C          22.6345   71.2996   -0.6789 C.3     1  UNL1        0.2704
     38 H          20.7582   72.3262    3.2635 H       1  UNL1        0.2105
     39 H          20.7061   74.0981    2.5991 H       1  UNL1        0.2105
     40 H          21.5550   69.4077    1.7619 H       1  UNL1        0.2106
     41 O          23.1794   75.1366   -1.8486 O.3     1  UNL1       -0.3794
     42 C          22.9074   74.9790   -0.4682 C.3     1  UNL1        0.1693
     43 H          23.6013   75.9976   -1.9981 H       1  UNL1        0.2105
@<TRIPOS>UNITY_ATOM_ATTR
2 1
charge -1
26 1
charge -1
@<TRIPOS>BOND
     1    25    28    1
     2    25    24    1
     3    25    26    1
     4    25    27    2
     5     1     4    1
     6     1    24    1
     7     1     2    1
     8     1     3    2
     9     6    11    1
    10     6    12    1
    11    29    36    1
    12    29    37    1
    13     7     9    1
    14     7    13    1
    15     8    10    1
    16     8    14    1
    17    28    37    1
    18     4     5    1
    19    30    33    1
    20    30    38    1
    21    31    34    1
    22    31    39    1
    23    32    35    1
    24    32    40    1
    25    41    42    1
    26    41    43    1
    27    15    19    2
    28    16    22    2
    29    17    12    1
    30    17    19   ar
    31    17    20   ar
    32    18    19   ar
    33    18    22   ar
    34    18    23    1
    35     9    10    1
    36     9    11    1
    37    10    12    1
    38    11     5    1
    39    33    34    1
    40    33    35    1
    41    34    36    1
    42    35    37    1
    43    36    42    1
    44    20    21   ar
    45    21    22   ar
@<TRIPOS>MOLECULE
*****
 43 45 0 0 0
SMALL
GASTEIGER

@<TRIPOS>ATOM
      1 P          18.0891   71.9620   -2.7829 P.3     1  UNL1        0.2189
      2 O          16.6560   71.3003   -2.4282 O.co2   1  UNL1       -0.4371
      3 O          18.4977   73.1017   -1.8966 O.2     1  UNL1       -0.5170
      4 O          17.9796   72.3033   -4.3607 O.3     1  UNL1       -0.3112
      5 C          17.8410   71.2308   -5.2764 C.3     1  UNL1        0.1811
      6 O          17.7683   72.8515   -7.0489 O.3     1  UNL1       -0.3308
      7 O          15.8605   70.9890   -8.4208 O.3     1  UNL1       -0.3794
      8 O          18.2108   70.4877   -9.7096 O.3     1  UNL1       -0.3779
      9 C          16.9958   70.6833   -7.6128 C.3     1  UNL1        0.1713
     10 C          18.2742   70.9554   -8.3778 C.3     1  UNL1        0.1895
     11 C          17.0680   71.7161   -6.4950 C.3     1  UNL1        0.1764
     12 C          18.3755   72.4690   -8.2939 C.3     1  UNL1        0.2383
     13 H          15.7933   70.3425   -9.1416 H       1  UNL1        0.2105
     14 H          18.1474   69.5198   -9.7099 H       1  UNL1        0.2106
     15 O          20.6307   70.7897   -8.0257 O.2     1  UNL1       -0.2464
     16 O          23.5458   74.3430   -8.3690 O.2     1  UNL1       -0.2670
     17 N          19.7356   72.9286   -8.3100 N.ar    1  UNL1       -0.2551
     18 N          22.0804   72.5603   -8.1970 N.ar    1  UNL1       -0.2743
     19 C          20.7955   72.0032   -8.1665 C.ar    1  UNL1        0.3323
     20 C          20.0074   74.2834   -8.4671 C.ar    1  UNL1        0.0869
     21 C          21.2383   74.7987   -8.4928 C.ar    1  UNL1        0.0795
     22 C          22.4016   73.8998   -8.3495 C.ar    1  UNL1        0.2626
     23 H          22.8344   71.9347   -8.0985 H       1  UNL1        0.1734
     24 O          19.0918   70.6944   -2.7541 O.3     1  UNL1       -0.2703
     25 P          20.7048   70.6183   -2.6804 P.3     1  UNL1        0.2208
     26 O          21.1762   71.4911   -3.9585 O.co2   1  UNL1       -0.4371
     27 O          21.2541   69.2215   -2.6478 O.2     1  UNL1       -0.5170
     28 O          21.0984   71.5218   -1.4022 O.3     1  UNL1       -0.2858
     29 O          23.1082   72.6453   -0.8409 O.3     1  UNL1       -0.3258
     30 O          22.0167   71.3282    2.9175 O.3     1  UNL1       -0.3794
     31 O          21.7795   74.1156    2.2674 O.3     1  UNL1       -0.3794
     32 O          21.5896   69.6306    0.6120 O.3     1  UNL1       -0.3775
     33 C          21.7930   71.8207    1.5935 C.3     1  UNL1        0.1715
     34 C          22.4882   73.1773    1.4626 C.3     1  UNL1        0.1694
     35 C          22.3650   70.8241    0.5870 C.3     1  UNL1        0.1967
     36 C          22.5210   73.6442    0.0011 C.3     1  UNL1        0.1761
     37 C          22.3975   71.4057   -0.8275 C.3     1  UNL1        0.2704
     38 H          21.6554   71.9562    3.5614 H       1  UNL1        0.2105
     39 H          21.7657   73.8087    3.1877 H       1  UNL1        0.2105
     40 H          21.5771   69.2721    1.5127 H       1  UNL1        0.2106
     41 O          24.3477   74.6730   -1.1450 O.3     1  UNL1       -0.3794
     42 C          23.3465   74.9170   -0.1743 C.3     1  UNL1        0.1693
     43 H          24.8808   75.4746   -1.2673 H       1  UNL1        0.2105
@<TRIPOS>UNITY_ATOM_ATTR
2 1
charge -1
26 1
charge -1
@<TRIPOS>BOND
     1    25    28    1
     2    25    24    1
     3    25    26    1
     4    25    27    2
     5     1     4    1
     6     1    24    1
     7     1     2    1
     8     1     3    2
     9     6    11    1
    10     6    12    1
    11    29    36    1
    12    29    37    1
    13     7     9    1
    14     7    13    1
    15     8    10    1
    16     8    14    1
    17    28    37    1
    18     4     5    1
    19    30    33    1
    20    30    38    1
    21    31    34    1
    22    31    39    1
    23    32    35    1
    24    32    40    1
    25    41    42    1
    26    41    43    1
    27    15    19    2
    28    16    22    2
    29    17    12    1
    30    17    19   ar
    31    17    20   ar
    32    18    19   ar
    33    18    22   ar
    34    18    23    1
    35     9    10    1
    36     9    11    1
    37    10    12    1
    38    11     5    1
    39    33    34    1
    40    33    35    1
    41    34    36    1
    42    35    37    1
    43    36    42    1
    44    20    21   ar
    45    21    22   ar
@<TRIPOS>MOLECULE
*****
 43 45 0 0 0
SMALL
GASTEIGER

@<TRIPOS>ATOM
      1 P          19.2013   70.1472   -3.2833 P.3     1  UNL1        0.2189
      2 O          18.7633   68.7992   -2.5032 O.co2   1  UNL1       -0.4371
      3 O          18.7071   71.4239   -2.6692 O.2     1  UNL1       -0.5170
      4 O          18.7416   69.8784   -4.8112 O.3     1  UNL1       -0.3112
      5 C          17.3863   70.1024   -5.1588 C.3     1  UNL1        0.1811
      6 O          16.0502   70.8158   -7.0243 O.3     1  UNL1       -0.3308
      7 O          18.4833   70.3367   -8.7099 O.3     1  UNL1       -0.3794
      8 O          18.5065   73.0446   -8.3886 O.3     1  UNL1       -0.3779
      9 C          18.3935   70.8368   -7.3768 C.3     1  UNL1        0.1713
     10 C          17.8905   72.2652   -7.3838 C.3     1  UNL1        0.1895
     11 C          17.2572   70.1028   -6.6759 C.3     1  UNL1        0.1764
     12 C          16.4023   72.0740   -7.6223 C.3     1  UNL1        0.2383
     13 H          19.2027   70.7905   -9.1775 H       1  UNL1        0.2105
     14 H          19.4518   73.1375   -8.1920 H       1  UNL1        0.2106
     15 O          15.8551   72.2663   -4.8580 O.2     1  UNL1       -0.2464
     16 O          13.3631   76.1006   -5.4317 O.2     1  UNL1       -0.2670
     17 N          15.6135   73.1126   -7.0219 N.ar    1  UNL1       -0.2551
     18 N          14.6148   74.1754   -5.1459 N.ar    1  UNL1       -0.2743
     19 C          15.3979   73.1171   -5.6241 C.ar    1  UNL1        0.3323
     20 C          15.0634   74.1124   -7.8168 C.ar    1  UNL1        0.0869
     21 C          14.3179   75.1140   -7.3454 C.ar    1  UNL1        0.0795
     22 C          14.0450   75.1921   -5.8958 C.ar    1  UNL1        0.2626
     23 H          14.4510   74.1989   -4.1751 H       1  UNL1        0.1734
     24 O          20.8106   70.0163   -3.3597 O.3     1  UNL1       -0.2703
     25 P          21.9803   71.0625   -2.9724 P.3     1  UNL1        0.2208
     26 O          21.6204   72.3666   -3.8597 O.co2   1  UNL1       -0.4371
     27 O          23.3707   70.5360   -3.1811 O.2     1  UNL1       -0.5170
     28 O          21.6514   71.4993   -1.4539 O.3     1  UNL1       -0.2858
     29 O          23.2350   72.9320   -0.4261 O.3     1  UNL1       -0.3258
     30 O          21.1846   71.6940    2.9375 O.3     1  UNL1       -0.3794
     31 O          20.8332   74.3749    1.9694 O.3     1  UNL1       -0.3794
     32 O          21.7074   69.8202    0.7939 O.3     1  UNL1       -0.3775
     33 C          21.3305   72.0705    1.5655 C.3     1  UNL1        0.1715
     34 C          21.8650   73.5032    1.5156 C.3     1  UNL1        0.1694
     35 C          22.3037   71.1096    0.8850 C.3     1  UNL1        0.1967
     36 C          22.2987   73.8834    0.0936 C.3     1  UNL1        0.1761
     37 C          22.7088   71.6058   -0.5041 C.3     1  UNL1        0.2704
     38 H          20.5675   72.2999    3.3753 H       1  UNL1        0.2105
     39 H          20.5681   74.1237    2.8682 H       1  UNL1        0.2105
     40 H          21.4557   69.5171    1.6797 H       1  UNL1        0.2106
     41 O          22.2220   76.1028   -0.7883 O.3     1  UNL1       -0.3794
     42 C          22.9800   75.2495    0.0494 C.3     1  UNL1        0.1693
     43 H          22.6436   76.9760   -0.8256 H       1  UNL1        0.2105
@<TRIPOS>UNITY_ATOM_ATTR
2 1
charge -1
26 1
charge -1
@<TRIPOS>BOND
     1    25    28    1
     2    25    24    1
     3    25    26    1
     4    25    27    2
     5     1     4    1
     6     1    24    1
     7     1     2    1
     8     1     3    2
     9     6    11    1
    10     6    12    1
    11    29    36    1
    12    29    37    1
    13     7     9    1
    14     7    13    1
    15     8    10    1
    16     8    14    1
    17    28    37    1
    18     4     5    1
    19    30    33    1
    20    30    38    1
    21    31    34    1
    22    31    39    1
    23    32    35    1
    24    32    40    1
    25    41    42    1
    26    41    43    1
    27    15    19    2
    28    16    22    2
    29    17    12    1
    30    17    19   ar
    31    17    20   ar
    32    18    19   ar
    33    18    22   ar
    34    18    23    1
    35     9    10    1
    36     9    11    1
    37    10    12    1
    38    11     5    1
    39    33    34    1
    40    33    35    1
    41    34    36    1
    42    35    37    1
    43    36    42    1
    44    20    21   ar
    45    21    22   ar
@<TRIPOS>MOLECULE
*****
 43 45 0 0 0
SMALL
GASTEIGER

@<TRIPOS>ATOM
      1 P          19.6875   70.0092   -2.4571 P.3     1  UNL1        0.2189
      2 O          20.9807   69.0957   -2.7898 O.co2   1  UNL1       -0.4371
      3 O          18.4953   69.2568   -1.9433 O.2     1  UNL1       -0.5170
      4 O          19.4515   70.8573   -3.8147 O.3     1  UNL1       -0.3112
      5 C          19.0484   70.1646   -4.9832 C.3     1  UNL1        0.1811
      6 O          18.5249   72.2301   -6.0938 O.3     1  UNL1       -0.3308
      7 O          16.1391   70.8038   -7.2184 O.3     1  UNL1       -0.3794
      8 O          17.8963   70.7580   -9.3033 O.3     1  UNL1       -0.3779
      9 C          17.4492   70.3031   -6.9571 C.3     1  UNL1        0.1713
     10 C          18.4253   70.8178   -7.9944 C.3     1  UNL1        0.1895
     11 C          17.9595   70.9658   -5.6836 C.3     1  UNL1        0.1764
     12 C          18.6625   72.2428   -7.5241 C.3     1  UNL1        0.2383
     13 H          15.7921   70.3946   -8.0271 H       1  UNL1        0.2105
     14 H          17.7632   69.8312   -9.5565 H       1  UNL1        0.2106
     15 O          19.6360   72.4995  -10.1631 O.2     1  UNL1       -0.2464
     16 O          23.7098   74.0833   -8.7015 O.2     1  UNL1       -0.2670
     17 N          19.9737   72.7200   -7.8622 N.ar    1  UNL1       -0.2551
     18 N          21.6636   73.2881   -9.4332 N.ar    1  UNL1       -0.2743
     19 C          20.3646   72.8099   -9.2185 C.ar    1  UNL1        0.3323
     20 C          20.8565   73.0932   -6.8545 C.ar    1  UNL1        0.0869
     21 C          22.0923   73.5460   -7.0759 C.ar    1  UNL1        0.0795
     22 C          22.5787   73.6703   -8.4651 C.ar    1  UNL1        0.2626
     23 H          21.9579   73.3588  -10.3703 H       1  UNL1        0.1734
     24 O          20.2767   71.1149   -1.4357 O.3     1  UNL1       -0.2703
     25 P          21.4287   71.0100   -0.3067 P.3     1  UNL1        0.2208
     26 O          22.7652   71.4648   -1.0969 O.co2   1  UNL1       -0.4371
     27 O          21.5257   69.6636    0.3503 O.2     1  UNL1       -0.5170
     28 O          21.1199   72.2279    0.7064 O.3     1  UNL1       -0.2858
     29 O          21.9349   74.3399    1.4080 O.3     1  UNL1       -0.3258
     30 O          22.0667   72.3479    5.0226 O.3     1  UNL1       -0.3794
     31 O          20.0590   74.3535    4.5813 O.3     1  UNL1       -0.3794
     32 O          22.7780   70.9614    2.5831 O.3     1  UNL1       -0.3775
     33 C          21.5393   72.6765    3.7345 C.3     1  UNL1        0.1715
     34 C          21.1838   74.1645    3.7272 C.3     1  UNL1        0.1694
     35 C          22.5922   72.3700    2.6711 C.3     1  UNL1        0.1967
     36 C          20.8641   74.6507    2.3071 C.3     1  UNL1        0.1761
     37 C          22.1993   72.9392    1.3066 C.3     1  UNL1        0.2704
     38 H          21.4028   72.5396    5.7024 H       1  UNL1        0.2105
     39 H          20.2739   74.0421    5.4746 H       1  UNL1        0.2105
     40 H          23.0267   70.6132    3.4530 H       1  UNL1        0.2106
     41 O          19.3424   76.4551    2.6781 O.3     1  UNL1       -0.3794
     42 C          20.6608   76.1633    2.2527 C.3     1  UNL1        0.1693
     43 H          19.1988   77.4144    2.6489 H       1  UNL1        0.2105
@<TRIPOS>UNITY_ATOM_ATTR
2 1
charge -1
26 1
charge -1
@<TRIPOS>BOND
     1    25    28    1
     2    25    24    1
     3    25    26    1
     4    25    27    2
     5     1     4    1
     6     1    24    1
     7     1     2    1
     8     1     3    2
     9     6    11    1
    10     6    12    1
    11    29    36    1
    12    29    37    1
    13     7     9    1
    14     7    13    1
    15     8    10    1
    16     8    14    1
    17    28    37    1
    18     4     5    1
    19    30    33    1
    20    30    38    1
    21    31    34    1
    22    31    39    1
    23    32    35    1
    24    32    40    1
    25    41    42    1
    26    41    43    1
    27    15    19    2
    28    16    22    2
    29    17    12    1
    30    17    19   ar
    31    17    20   ar
    32    18    19   ar
    33    18    22   ar
    34    18    23    1
    35     9    10    1
    36     9    11    1
    37    10    12    1
    38    11     5    1
    39    33    34    1
    40    33    35    1
    41    34    36    1
    42    35    37    1
    43    36    42    1
    44    20    21   ar
    45    21    22   ar
@<TRIPOS>MOLECULE
*****
 43 45 0 0 0
SMALL
GASTEIGER

@<TRIPOS>ATOM
      1 P          21.9793   75.2671   -5.4352 P.3     1  UNL1        0.2189
      2 O          23.5907   75.1240   -5.4496 O.co2   1  UNL1       -0.4371
      3 O          21.4667   76.6179   -5.0302 O.2     1  UNL1       -0.5170
      4 O          21.4873   74.0260   -4.5213 O.3     1  UNL1       -0.3112
      5 C          21.8131   74.0308   -3.1423 C.3     1  UNL1        0.1811
      6 O          23.2452   73.0409   -1.4861 O.3     1  UNL1       -0.3308
      7 O          23.4805   70.7077   -3.3548 O.3     1  UNL1       -0.3794
      8 O          21.6620   69.8230   -1.5254 O.3     1  UNL1       -0.3779
      9 C          22.3554   71.5455   -3.0949 C.3     1  UNL1        0.1713
     10 C          21.7553   71.2159   -1.7440 C.3     1  UNL1        0.1895
     11 C          22.8670   72.9642   -2.8781 C.3     1  UNL1        0.1764
     12 C          22.7280   71.8930   -0.7935 C.3     1  UNL1        0.2383
     13 H          23.1788   69.7963   -3.4969 H       1  UNL1        0.2105
     14 H          21.0316   69.4384   -2.1542 H       1  UNL1        0.2106
     15 O          22.3955   70.2764    1.4987 O.2     1  UNL1       -0.2464
     16 O          20.2848   73.6624    3.8054 O.2     1  UNL1       -0.2670
     17 N          22.0954   72.3268    0.4202 N.ar    1  UNL1       -0.2551
     18 N          21.3450   71.9637    2.6454 N.ar    1  UNL1       -0.2743
     19 C          21.9782   71.4363    1.5128 C.ar    1  UNL1        0.3323
     20 C          21.5995   73.6223    0.5186 C.ar    1  UNL1        0.0869
     21 C          20.9971   74.1095    1.6053 C.ar    1  UNL1        0.0795
     22 C          20.8343   73.2438    2.7911 C.ar    1  UNL1        0.2626
     23 H          21.2517   71.3614    3.4189 H       1  UNL1        0.1734
     24 O          21.5602   74.8082   -6.9274 O.3     1  UNL1       -0.2703
     25 P          21.4637   73.3410   -7.5989 P.3     1  UNL1        0.2208
     26 O          22.6078   72.5013   -6.8219 O.co2   1  UNL1       -0.4371
     27 O          21.6014   73.3382   -9.0939 O.2     1  UNL1       -0.5170
     28 O          20.0713   72.7332   -7.0543 O.3     1  UNL1       -0.2858
     29 O          19.5411   70.5759   -6.2286 O.3     1  UNL1       -0.3258
     30 O          16.0479   71.3738   -8.2808 O.3     1  UNL1       -0.3794
     31 O          16.0457   71.4120   -5.4091 O.3     1  UNL1       -0.3794
     32 O          18.5917   72.2096   -9.3806 O.3     1  UNL1       -0.3775
     33 C          17.1949   71.6918   -7.4880 C.3     1  UNL1        0.1715
     34 C          17.1174   70.8882   -6.1884 C.3     1  UNL1        0.1694
     35 C          18.4571   71.3307   -8.2689 C.3     1  UNL1        0.1967
     36 C          18.4358   70.9698   -5.4071 C.3     1  UNL1        0.1761
     37 C          19.7052   71.3965   -7.3869 C.3     1  UNL1        0.2704
     38 H          15.2430   71.6011   -7.7908 H       1  UNL1        0.2105
     39 H          15.2192   71.3550   -5.9140 H       1  UNL1        0.2105
     40 H          17.7955   72.1585   -9.9313 H       1  UNL1        0.2106
     41 O          17.2601   69.2622   -4.2192 O.3     1  UNL1       -0.3794
     42 C          18.4360   70.0500   -4.1880 C.3     1  UNL1        0.1693
     43 H          17.2468   68.6716   -3.4493 H       1  UNL1        0.2105
@<TRIPOS>UNITY_ATOM_ATTR
2 1
charge -1
26 1
charge -1
@<TRIPOS>BOND
     1    25    28    1
     2    25    24    1
     3    25    26    1
     4    25    27    2
     5     1     4    1
     6     1    24    1
     7     1     2    1
     8     1     3    2
     9     6    11    1
    10     6    12    1
    11    29    36    1
    12    29    37    1
    13     7     9    1
    14     7    13    1
    15     8    10    1
    16     8    14    1
    17    28    37    1
    18     4     5    1
    19    30    33    1
    20    30    38    1
    21    31    34    1
    22    31    39    1
    23    32    35    1
    24    32    40    1
    25    41    42    1
    26    41    43    1
    27    15    19    2
    28    16    22    2
    29    17    12    1
    30    17    19   ar
    31    17    20   ar
    32    18    19   ar
    33    18    22   ar
    34    18    23    1
    35     9    10    1
    36     9    11    1
    37    10    12    1
    38    11     5    1
    39    33    34    1
    40    33    35    1
    41    34    36    1
    42    35    37    1
    43    36    42    1
    44    20    21   ar
    45    21    22   ar
@<TRIPOS>MOLECULE
*****
 43 45 0 0 0
SMALL
GASTEIGER

@<TRIPOS>ATOM
      1 P          17.2989   75.0212   -5.7084 P.3     1  UNL1        0.2189
      2 O          15.8380   74.3612   -5.9263 O.co2   1  UNL1       -0.4371
      3 O          17.2893   76.4026   -5.1226 O.2     1  UNL1       -0.5170
      4 O          18.0103   74.8761   -7.1543 O.3     1  UNL1       -0.3112
      5 C          19.3351   74.3762   -7.2089 C.3     1  UNL1        0.1811
      6 O          19.7907   72.0388   -7.5293 O.3     1  UNL1       -0.3308
      7 O          18.2907   72.2922  -10.1132 O.3     1  UNL1       -0.3794
      8 O          16.4442   71.1495   -8.4637 O.3     1  UNL1       -0.3779
      9 C          18.0474   72.9333   -8.8622 C.3     1  UNL1        0.1713
     10 C          17.4479   71.9523   -7.8764 C.3     1  UNL1        0.1895
     11 C          19.3957   73.2424   -8.2233 C.3     1  UNL1        0.1764
     12 C          18.6653   71.1487   -7.4517 C.3     1  UNL1        0.2383
     13 H          17.4441   72.0853  -10.5404 H       1  UNL1        0.2105
     14 H          15.6914   71.7063   -8.7166 H       1  UNL1        0.2106
     15 O          16.2566   71.0591   -5.9792 O.2     1  UNL1       -0.2464
     16 O          18.3565   69.2323   -2.3057 O.2     1  UNL1       -0.2670
     17 N          18.5537   70.6542   -6.1084 N.ar    1  UNL1       -0.2551
     18 N          17.3041   70.1494   -4.1513 N.ar    1  UNL1       -0.2743
     19 C          17.2977   70.6537   -5.4581 C.ar    1  UNL1        0.3323
     20 C          19.6815   70.1762   -5.4500 C.ar    1  UNL1        0.0869
     21 C          19.6710   69.6998   -4.2033 C.ar    1  UNL1        0.0795
     22 C          18.3988   69.6643   -3.4535 C.ar    1  UNL1        0.2626
     23 H          16.4404   70.1397   -3.6784 H       1  UNL1        0.1734
     24 O          18.0671   73.9162   -4.8130 O.3     1  UNL1       -0.2703
     25 P          18.2882   73.8118   -3.2151 P.3     1  UNL1        0.2208
     26 O          17.0854   72.8412   -2.7368 O.co2   1  UNL1       -0.4371
     27 O          18.3310   75.1375   -2.5119 O.2     1  UNL1       -0.5170
     28 O          19.6232   72.9209   -3.0448 O.3     1  UNL1       -0.2858
     29 O          21.0195   72.4142   -1.1981 O.3     1  UNL1       -0.3258
     30 O          23.9218   73.0337   -4.0692 O.3     1  UNL1       -0.3794
     31 O          23.3810   70.3664   -3.1522 O.3     1  UNL1       -0.3794
     32 O          21.5577   74.7035   -4.0220 O.3     1  UNL1       -0.3775
     33 C          22.6511   72.6050   -3.5724 C.3     1  UNL1        0.1715
     34 C          22.8896   71.5363   -2.5039 C.3     1  UNL1        0.1694
     35 C          21.9169   73.8053   -2.9777 C.3     1  UNL1        0.1967
     36 C          21.5977   71.2202   -1.7383 C.3     1  UNL1        0.1761
     37 C          20.6737   73.3765   -2.1962 C.3     1  UNL1        0.2704
     38 H          24.3929   72.2764   -4.4486 H       1  UNL1        0.2105
     39 H          24.1966   70.5797   -3.6323 H       1  UNL1        0.2105
     40 H          22.3532   74.9678   -4.5090 H       1  UNL1        0.2106
     41 O          21.4642   70.9307    0.6297 O.3     1  UNL1       -0.3794
     42 C          21.8449   70.2740   -0.5654 C.3     1  UNL1        0.1693
     43 H          21.6157   70.3402    1.3847 H       1  UNL1        0.2105
@<TRIPOS>UNITY_ATOM_ATTR
2 1
charge -1
26 1
charge -1
@<TRIPOS>BOND
     1    25    28    1
     2    25    24    1
     3    25    26    1
     4    25    27    2
     5     1     4    1
     6     1    24    1
     7     1     2    1
     8     1     3    2
     9     6    11    1
    10     6    12    1
    11    29    36    1
    12    29    37    1
    13     7     9    1
    14     7    13    1
    15     8    10    1
    16     8    14    1
    17    28    37    1
    18     4     5    1
    19    30    33    1
    20    30    38    1
    21    31    34    1
    22    31    39    1
    23    32    35    1
    24    32    40    1
    25    41    42    1
    26    41    43    1
    27    15    19    2
    28    16    22    2
    29    17    12    1
    30    17    19   ar
    31    17    20   ar
    32    18    19   ar
    33    18    22   ar
    34    18    23    1
    35     9    10    1
    36     9    11    1
    37    10    12    1
    38    11     5    1
    39    33    34    1
    40    33    35    1
    41    34    36    1
    42    35    37    1
    43    36    42    1
    44    20    21   ar
    45    21    22   ar
@<TRIPOS>MOLECULE
*****
 43 45 0 0 0
SMALL
GASTEIGER

@<TRIPOS>ATOM
      1 P          18.4508   70.1835   -3.3283 P.3     1  UNL1        0.2189
      2 O          17.2575   70.9361   -2.5366 O.co2   1  UNL1       -0.4371
      3 O          19.2546   69.2245   -2.5003 O.2     1  UNL1       -0.5170
      4 O          19.2839   71.3898   -4.0131 O.3     1  UNL1       -0.3112
      5 C          19.5914   72.5293   -3.2291 C.3     1  UNL1        0.1811
      6 O          21.6254   73.5101   -2.4076 O.3     1  UNL1       -0.3308
      7 O          22.8904   72.5648   -4.9565 O.3     1  UNL1       -0.3794
      8 O          23.7080   70.6876   -3.1554 O.3     1  UNL1       -0.3779
      9 C          21.8833   71.9392   -4.1630 C.3     1  UNL1        0.1713
     10 C          22.4912   71.3602   -2.9026 C.3     1  UNL1        0.1895
     11 C          20.9782   73.0315   -3.6069 C.3     1  UNL1        0.1764
     12 C          22.6759   72.5997   -2.0437 C.3     1  UNL1        0.2383
     13 H          23.4806   71.8871   -5.3229 H       1  UNL1        0.2105
     14 H          23.5378   69.9068   -3.7052 H       1  UNL1        0.2106
     15 O          22.1362   70.0432   -0.9709 O.2     1  UNL1       -0.2464
     16 O          22.3260   71.6176    3.3565 O.2     1  UNL1       -0.2670
     17 N          22.5791   72.3129   -0.6402 N.ar    1  UNL1       -0.2551
     18 N          22.2313   70.8292    1.1829 N.ar    1  UNL1       -0.2743
     19 C          22.3033   70.9954   -0.2060 C.ar    1  UNL1        0.3323
     20 C          22.7572   73.3319    0.2892 C.ar    1  UNL1        0.0869
     21 C          22.6841   73.1571    1.6103 C.ar    1  UNL1        0.0795
     22 C          22.3996   71.8106    2.1469 C.ar    1  UNL1        0.2626
     23 H          22.0398   69.9198    1.5087 H       1  UNL1        0.1734
     24 O          17.6865   69.5112   -4.5840 O.3     1  UNL1       -0.2703
     25 P          17.0387   70.1714   -5.9097 P.3     1  UNL1        0.2208
     26 O          16.4055   71.5562   -5.3630 O.co2   1  UNL1       -0.4371
     27 O          16.0618   69.2836   -6.6249 O.2     1  UNL1       -0.5170
     28 O          18.3055   70.6261   -6.8004 O.3     1  UNL1       -0.2858
     29 O          17.2973   71.8105   -8.5885 O.3     1  UNL1       -0.3258
     30 O          21.2669   72.4156   -9.5514 O.3     1  UNL1       -0.3794
     31 O          19.7119   74.5949   -8.5117 O.3     1  UNL1       -0.3794
     32 O          20.4116   69.8618   -8.4903 O.3     1  UNL1       -0.3775
     33 C          20.1497   72.2491   -8.6742 C.3     1  UNL1        0.1715
     34 C          19.1449   73.3669   -8.9598 C.3     1  UNL1        0.1694
     35 C          19.5179   70.8811   -8.9248 C.3     1  UNL1        0.1967
     36 C          17.8090   73.1052   -8.2513 C.3     1  UNL1        0.1761
     37 C          18.1701   70.7427   -8.2144 C.3     1  UNL1        0.2704
     38 H          21.6729   73.2821   -9.3971 H       1  UNL1        0.2105
     39 H          20.5552   74.7479   -8.9664 H       1  UNL1        0.2105
     40 H          21.2608   69.9601   -8.9475 H       1  UNL1        0.2106
     41 O          16.4743   73.9784  -10.0303 O.3     1  UNL1       -0.3794
     42 C          16.7422   74.1235   -8.6478 C.3     1  UNL1        0.1693
     43 H          15.7968   74.6201  -10.2968 H       1  UNL1        0.2105
@<TRIPOS>UNITY_ATOM_ATTR
2 1
charge -1
26 1
charge -1
@<TRIPOS>BOND
     1    25    28    1
     2    25    24    1
     3    25    26    1
     4    25    27    2
     5     1     4    1
     6     1    24    1
     7     1     2    1
     8     1     3    2
     9     6    11    1
    10     6    12    1
    11    29    36    1
    12    29    37    1
    13     7     9    1
    14     7    13    1
    15     8    10    1
    16     8    14    1
    17    28    37    1
    18     4     5    1
    19    30    33    1
    20    30    38    1
    21    31    34    1
    22    31    39    1
    23    32    35    1
    24    32    40    1
    25    41    42    1
    26    41    43    1
    27    15    19    2
    28    16    22    2
    29    17    12    1
    30    17    19   ar
    31    17    20   ar
    32    18    19   ar
    33    18    22   ar
    34    18    23    1
    35     9    10    1
    36     9    11    1
    37    10    12    1
    38    11     5    1
    39    33    34    1
    40    33    35    1
    41    34    36    1
    42    35    37    1
    43    36    42    1
    44    20    21   ar
    45    21    22   ar
