@<TRIPOS>MOLECULE
*****
 43 45 0 0 0
SMALL
GASTEIGER

@<TRIPOS>ATOM
      1 P          22.8450   71.6675   -2.4377 P.3     1  UNL1        0.2189
      2 O          23.4773   73.1039   -2.8309 O.co2   1  UNL1       -0.4371
      3 O          23.3774   70.5045   -3.2222 O.2     1  UNL1       -0.5170
      4 O          21.2477   71.9071   -2.5328 O.3     1  UNL1       -0.3112
      5 C          20.5513   71.3861   -3.6515 C.3     1  UNL1        0.1811
      6 O          18.6197   72.2084   -4.8203 O.3     1  UNL1       -0.3308
      7 O          17.0023   71.0626   -2.5704 O.3     1  UNL1       -0.3794
      8 O          16.7131   69.1849   -4.5267 O.3     1  UNL1       -0.3779
      9 C          18.1933   70.5590   -3.1731 C.3     1  UNL1        0.1713
     10 C          17.8860   69.9730   -4.5354 C.3     1  UNL1        0.1895
     11 C          19.0773   71.7475   -3.5302 C.3     1  UNL1        0.1764
     12 C          17.7457   71.2207   -5.3907 C.3     1  UNL1        0.2383
     13 H          16.4219   70.3217   -2.3333 H       1  UNL1        0.2105
     14 H          16.8526   68.4035   -3.9693 H       1  UNL1        0.2106
     15 O          15.9732   70.3801   -7.4229 O.2     1  UNL1       -0.2464
     16 O          19.3176   70.3821  -10.5941 O.2     1  UNL1       -0.2670
     17 N          18.1263   70.9941   -6.7564 N.ar    1  UNL1       -0.2551
     18 N          17.6399   70.3819   -9.0003 N.ar    1  UNL1       -0.2743
     19 C          17.1594   70.5721   -7.6984 C.ar    1  UNL1        0.3323
     20 C          19.4456   71.1907   -7.1498 C.ar    1  UNL1        0.0869
     21 C          19.8880   71.0037   -8.3950 C.ar    1  UNL1        0.0795
     22 C          18.9417   70.5628   -9.4401 C.ar    1  UNL1        0.2626
     23 H          16.9842   70.0876   -9.6735 H       1  UNL1        0.1734
     24 O          23.1050   71.5799   -0.8446 O.3     1  UNL1       -0.2703
     25 P          22.3908   70.6897    0.3001 P.3     1  UNL1        0.2208
     26 O          23.4412   69.4829    0.5409 O.co2   1  UNL1       -0.4371
     27 O          21.0009   70.2408   -0.0472 O.2     1  UNL1       -0.5170
     28 O          22.4890   71.5885    1.6371 O.3     1  UNL1       -0.2858
     29 O          21.4175   72.3817    3.5965 O.3     1  UNL1       -0.3258
     30 O          21.2985   75.8348    1.3353 O.3     1  UNL1       -0.3794
     31 O          23.1037   75.6596    3.5621 O.3     1  UNL1       -0.3794
     32 O          20.8735   73.2657    0.0711 O.3     1  UNL1       -0.3775
     33 C          21.8582   74.6080    1.8117 C.3     1  UNL1        0.1715
     34 C          22.0540   74.7258    3.3245 C.3     1  UNL1        0.1694
     35 C          20.9039   73.4621    1.4807 C.3     1  UNL1        0.1967
     36 C          22.3982   73.3655    3.9461 C.3     1  UNL1        0.1761
     37 C          21.3089   72.1676    2.1879 C.3     1  UNL1        0.2704
     38 H          21.8998   76.5664    1.5419 H       1  UNL1        0.2105
     39 H          22.8741   76.5141    3.1642 H       1  UNL1        0.2105
     40 H          20.6155   74.0922   -0.3650 H       1  UNL1        0.2106
     41 O          21.1228   73.2951    5.9654 O.3     1  UNL1       -0.3794
     42 C          22.4428   73.4285    5.4713 C.3     1  UNL1        0.1693
     43 H          21.1357   73.3330    6.9349 H       1  UNL1        0.2105
@<TRIPOS>UNITY_ATOM_ATTR
2 1
charge -1
26 1
charge -1
@<TRIPOS>BOND
     1    25    28    1
     2    25    24    1
     3    25    26    1
     4    25    27    2
     5     1     4    1
     6     1    24    1
     7     1     2    1
     8     1     3    2
     9     6    11    1
    10     6    12    1
    11    29    36    1
    12    29    37    1
    13     7     9    1
    14     7    13    1
    15     8    10    1
    16     8    14    1
    17    28    37    1
    18     4     5    1
    19    30    33    1
    20    30    38    1
    21    31    34    1
    22    31    39    1
    23    32    35    1
    24    32    40    1
    25    41    42    1
    26    41    43    1
    27    15    19    2
    28    16    22    2
    29    17    12    1
    30    17    19   ar
    31    17    20   ar
    32    18    19   ar
    33    18    22   ar
    34    18    23    1
    35     9    10    1
    36     9    11    1
    37    10    12    1
    38    11     5    1
    39    33    34    1
    40    33    35    1
    41    34    36    1
    42    35    37    1
    43    36    42    1
    44    20    21   ar
    45    21    22   ar
@<TRIPOS>MOLECULE
*****
 43 45 0 0 0
SMALL
GASTEIGER

@<TRIPOS>ATOM
      1 P          22.8562   71.7507   -2.3905 P.3     1  UNL1        0.2189
      2 O          23.6438   73.1549   -2.5494 O.co2   1  UNL1       -0.4371
      3 O          23.4206   70.6134   -3.1901 O.2     1  UNL1       -0.5170
      4 O          21.3151   72.1323   -2.7025 O.3     1  UNL1       -0.3112
      5 C          20.5624   71.2734   -3.5413 C.3     1  UNL1        0.1811
      6 O          18.6493   72.1378   -4.7104 O.3     1  UNL1       -0.3308
      7 O          16.9983   70.9333   -2.5163 O.3     1  UNL1       -0.3794
      8 O          16.7276   69.1149   -4.5305 O.3     1  UNL1       -0.3779
      9 C          18.1952   70.4425   -3.1180 C.3     1  UNL1        0.1713
     10 C          17.9035   69.8980   -4.5008 C.3     1  UNL1        0.1895
     11 C          19.0882   71.6373   -3.4285 C.3     1  UNL1        0.1764
     12 C          17.7791   71.1709   -5.3209 C.3     1  UNL1        0.2383
     13 H          16.4121   70.1882   -2.3086 H       1  UNL1        0.2105
     14 H          16.8568   68.3169   -3.9945 H       1  UNL1        0.2106
     15 O          16.0332   70.3837   -7.3969 O.2     1  UNL1       -0.2464
     16 O          19.4156   70.4794  -10.5259 O.2     1  UNL1       -0.2670
     17 N          18.1767   70.9829   -6.6876 N.ar    1  UNL1       -0.2551
     18 N          17.7188   70.4322   -8.9533 N.ar    1  UNL1       -0.2743
     19 C          17.2221   70.5854   -7.6526 C.ar    1  UNL1        0.3323
     20 C          19.5003   71.1926   -7.0593 C.ar    1  UNL1        0.0869
     21 C          19.9581   71.0409   -8.3038 C.ar    1  UNL1        0.0795
     22 C          19.0254   70.6275   -9.3720 C.ar    1  UNL1        0.2626
     23 H          17.0719   70.1554   -9.6423 H       1  UNL1        0.1734
     24 O          22.8551   71.5135   -0.7915 O.3     1  UNL1       -0.2703
     25 P          22.0615   70.4419    0.1222 P.3     1  UNL1        0.2208
     26 O          23.2334   69.4512    0.6347 O.co2   1  UNL1       -0.4371
     27 O          20.9303   69.7506   -0.5825 O.2     1  UNL1       -0.5170
     28 O          21.6242   71.2702    1.4365 O.3     1  UNL1       -0.2858
     29 O          22.1471   73.4962    0.8133 O.3     1  UNL1       -0.3258
     30 O          20.3456   74.2363    4.4545 O.3     1  UNL1       -0.3794
     31 O          18.9662   74.9095    2.0271 O.3     1  UNL1       -0.3794
     32 O          22.0532   71.9211    4.1324 O.3     1  UNL1       -0.3775
     33 C          20.5416   73.5552    3.2123 C.3     1  UNL1        0.1715
     34 C          20.3472   74.5624    2.0772 C.3     1  UNL1        0.1694
     35 C          21.9538   72.9738    3.1792 C.3     1  UNL1        0.1967
     36 C          20.8000   73.9764    0.7330 C.3     1  UNL1        0.1761
     37 C          22.3219   72.4631    1.7850 C.3     1  UNL1        0.2704
     38 H          19.4506   74.6074    4.4821 H       1  UNL1        0.2105
     39 H          18.6929   75.2778    2.8821 H       1  UNL1        0.2105
     40 H          21.8180   72.2572    5.0108 H       1  UNL1        0.2106
     41 O          22.0467   75.0840   -0.9781 O.3     1  UNL1       -0.3794
     42 C          20.7628   75.0155   -0.3854 C.3     1  UNL1        0.1693
     43 H          22.0379   75.7412   -1.6920 H       1  UNL1        0.2105
@<TRIPOS>UNITY_ATOM_ATTR
2 1
charge -1
26 1
charge -1
@<TRIPOS>BOND
     1    25    28    1
     2    25    24    1
     3    25    26    1
     4    25    27    2
     5     1     4    1
     6     1    24    1
     7     1     2    1
     8     1     3    2
     9     6    11    1
    10     6    12    1
    11    29    36    1
    12    29    37    1
    13     7     9    1
    14     7    13    1
    15     8    10    1
    16     8    14    1
    17    28    37    1
    18     4     5    1
    19    30    33    1
    20    30    38    1
    21    31    34    1
    22    31    39    1
    23    32    35    1
    24    32    40    1
    25    41    42    1
    26    41    43    1
    27    15    19    2
    28    16    22    2
    29    17    12    1
    30    17    19   ar
    31    17    20   ar
    32    18    19   ar
    33    18    22   ar
    34    18    23    1
    35     9    10    1
    36     9    11    1
    37    10    12    1
    38    11     5    1
    39    33    34    1
    40    33    35    1
    41    34    36    1
    42    35    37    1
    43    36    42    1
    44    20    21   ar
    45    21    22   ar
@<TRIPOS>MOLECULE
*****
 43 45 0 0 0
SMALL
GASTEIGER

@<TRIPOS>ATOM
      1 P          22.9590   72.0671   -3.4704 P.3     1  UNL1        0.2189
      2 O          24.1594   73.1013   -3.7972 O.co2   1  UNL1       -0.4371
      3 O          23.3889   70.6467   -3.2488 O.2     1  UNL1       -0.5170
      4 O          21.9049   72.3023   -4.6751 O.3     1  UNL1       -0.3112
      5 C          21.6547   73.6291   -5.1052 C.3     1  UNL1        0.1811
      6 O          21.3963   72.5774   -7.2502 O.3     1  UNL1       -0.3308
      7 O          22.0639   75.2509   -8.4325 O.3     1  UNL1       -0.3794
      8 O          19.3485   75.1587   -8.6668 O.3     1  UNL1       -0.3779
      9 C          21.3171   74.9459   -7.2558 C.3     1  UNL1        0.1713
     10 C          19.9476   74.4152   -7.6251 C.3     1  UNL1        0.1895
     11 C          21.9598   73.7338   -6.5931 C.3     1  UNL1        0.1764
     12 C          20.2629   72.9862   -8.0333 C.3     1  UNL1        0.2383
     13 H          21.6724   76.0221   -8.8728 H       1  UNL1        0.2105
     14 H          19.1674   76.0601   -8.3580 H       1  UNL1        0.2106
     15 O          18.9874   71.4192  -10.0070 O.2     1  UNL1       -0.2464
     16 O          16.0841   69.5835   -6.9341 O.2     1  UNL1       -0.2670
     17 N          19.1712   72.0897   -7.7768 N.ar    1  UNL1       -0.2551
     18 N          17.5429   70.5063   -8.4753 N.ar    1  UNL1       -0.2743
     19 C          18.6008   71.3494   -8.8385 C.ar    1  UNL1        0.3323
     20 C          18.6773   71.9512   -6.4842 C.ar    1  UNL1        0.0869
     21 C          17.6670   71.1438   -6.1547 C.ar    1  UNL1        0.0795
     22 C          17.0154   70.3351   -7.2052 C.ar    1  UNL1        0.2626
     23 H          17.1297   69.9810   -9.1986 H       1  UNL1        0.1734
     24 O          22.2233   72.7525   -2.2048 O.3     1  UNL1       -0.2703
     25 P          21.0542   72.2048   -1.2320 P.3     1  UNL1        0.2208
     26 O          21.5656   70.7220   -0.8356 O.co2   1  UNL1       -0.4371
     27 O          19.6809   72.2449   -1.8373 O.2     1  UNL1       -0.5170
     28 O          21.2132   73.0667    0.1233 O.3     1  UNL1       -0.2858
     29 O          23.2971   74.0296    0.7122 O.3     1  UNL1       -0.3258
     30 O          21.5553   73.8871    4.4534 O.3     1  UNL1       -0.3794
     31 O          21.8606   76.4159    3.1268 O.3     1  UNL1       -0.3794
     32 O          21.1382   71.7176    2.5828 O.3     1  UNL1       -0.3775
     33 C          21.5783   74.0427    3.0319 C.3     1  UNL1        0.1715
     34 C          22.4978   75.2176    2.6929 C.3     1  UNL1        0.1694
     35 C          22.0965   72.7537    2.3969 C.3     1  UNL1        0.1967
     36 C          22.7843   75.2801    1.1865 C.3     1  UNL1        0.1761
     37 C          22.3959   72.9381    0.9081 C.3     1  UNL1        0.2704
     38 H          21.2267   74.7019    4.8627 H       1  UNL1        0.2105
     39 H          21.6848   76.3634    4.0795 H       1  UNL1        0.2105
     40 H          20.9575   71.6105    3.5292 H       1  UNL1        0.2106
     41 O          24.1056   76.2718   -0.5396 O.3     1  UNL1       -0.3794
     42 C          23.8230   76.3463    0.8457 C.3     1  UNL1        0.1693
     43 H          24.7651   76.9450   -0.7711 H       1  UNL1        0.2105
@<TRIPOS>UNITY_ATOM_ATTR
2 1
charge -1
26 1
charge -1
@<TRIPOS>BOND
     1    25    28    1
     2    25    24    1
     3    25    26    1
     4    25    27    2
     5     1     4    1
     6     1    24    1
     7     1     2    1
     8     1     3    2
     9     6    11    1
    10     6    12    1
    11    29    36    1
    12    29    37    1
    13     7     9    1
    14     7    13    1
    15     8    10    1
    16     8    14    1
    17    28    37    1
    18     4     5    1
    19    30    33    1
    20    30    38    1
    21    31    34    1
    22    31    39    1
    23    32    35    1
    24    32    40    1
    25    41    42    1
    26    41    43    1
    27    15    19    2
    28    16    22    2
    29    17    12    1
    30    17    19   ar
    31    17    20   ar
    32    18    19   ar
    33    18    22   ar
    34    18    23    1
    35     9    10    1
    36     9    11    1
    37    10    12    1
    38    11     5    1
    39    33    34    1
    40    33    35    1
    41    34    36    1
    42    35    37    1
    43    36    42    1
    44    20    21   ar
    45    21    22   ar
@<TRIPOS>MOLECULE
*****
 43 45 0 0 0
SMALL
GASTEIGER

@<TRIPOS>ATOM
      1 P          22.0323   74.3069   -5.7634 P.3     1  UNL1        0.2189
      2 O          20.7322   74.8792   -4.9889 O.co2   1  UNL1       -0.4371
      3 O          23.2073   75.2392   -5.8035 O.2     1  UNL1       -0.5170
      4 O          21.4544   73.8424   -7.2015 O.3     1  UNL1       -0.3112
      5 C          20.1323   74.2134   -7.5508 C.3     1  UNL1        0.1811
      6 O          19.6688   71.9266   -8.1247 O.3     1  UNL1       -0.3308
      7 O          17.9726   73.0225  -10.3412 O.3     1  UNL1       -0.3794
      8 O          16.1229   72.3543   -8.4520 O.3     1  UNL1       -0.3779
      9 C          18.1730   73.5302   -9.0230 C.3     1  UNL1        0.1713
     10 C          17.4256   72.6833   -8.0142 C.3     1  UNL1        0.1895
     11 C          19.6251   73.2760   -8.6381 C.3     1  UNL1        0.1764
     12 C          18.3271   71.4663   -7.8949 C.3     1  UNL1        0.2383
     13 H          17.0522   73.1737  -10.6092 H       1  UNL1        0.2105
     14 H          15.5883   73.1614   -8.5119 H       1  UNL1        0.2106
     15 O          16.1438   69.9364   -6.9617 O.2     1  UNL1       -0.2464
     16 O          18.1729   69.1865   -2.8921 O.2     1  UNL1       -0.2670
     17 N          18.2585   70.8591   -6.5957 N.ar    1  UNL1       -0.2551
     18 N          17.1560   69.5641   -4.9362 N.ar    1  UNL1       -0.2743
     19 C          17.1164   70.1117   -6.2248 C.ar    1  UNL1        0.3323
     20 C          19.3159   71.0073   -5.7048 C.ar    1  UNL1        0.0869
     21 C          19.3376   70.4798   -4.4790 C.ar    1  UNL1        0.0795
     22 C          18.1832   69.6844   -4.0136 C.ar    1  UNL1        0.2626
     23 H          16.3710   69.0396   -4.6559 H       1  UNL1        0.1734
     24 O          22.3130   72.9026   -5.0138 O.3     1  UNL1       -0.2703
     25 P          23.1137   72.5688   -3.6498 P.3     1  UNL1        0.2208
     26 O          24.4114   73.5311   -3.7364 O.co2   1  UNL1       -0.4371
     27 O          23.4331   71.1136   -3.4642 O.2     1  UNL1       -0.5170
     28 O          22.2084   73.2097   -2.4774 O.3     1  UNL1       -0.2858
     29 O          21.4842   71.4118   -1.1137 O.3     1  UNL1       -0.3258
     30 O          19.5372   74.5132    0.7946 O.3     1  UNL1       -0.3794
     31 O          21.8059   73.2775    2.0493 O.3     1  UNL1       -0.3794
     32 O          19.7450   74.4976   -2.0926 O.3     1  UNL1       -0.3775
     33 C          20.6052   73.8922    0.0741 C.3     1  UNL1        0.1715
     34 C          21.1393   72.7308    0.9148 C.3     1  UNL1        0.1694
     35 C          20.0753   73.3865   -1.2663 C.3     1  UNL1        0.1967
     36 C          22.1009   71.8542    0.1011 C.3     1  UNL1        0.1761
     37 C          21.0905   72.4849   -1.9712 C.3     1  UNL1        0.2704
     38 H          19.8672   74.8369    1.6466 H       1  UNL1        0.2105
     39 H          21.1879   73.8292    2.5542 H       1  UNL1        0.2105
     40 H          19.1015   75.0604   -1.6354 H       1  UNL1        0.2106
     41 O          21.6084   69.5639    0.5711 O.3     1  UNL1       -0.3794
     42 C          22.5226   70.6032    0.8686 C.3     1  UNL1        0.1693
     43 H          21.8645   68.7612    1.0525 H       1  UNL1        0.2105
@<TRIPOS>UNITY_ATOM_ATTR
2 1
charge -1
26 1
charge -1
@<TRIPOS>BOND
     1    25    28    1
     2    25    24    1
     3    25    26    1
     4    25    27    2
     5     1     4    1
     6     1    24    1
     7     1     2    1
     8     1     3    2
     9     6    11    1
    10     6    12    1
    11    29    36    1
    12    29    37    1
    13     7     9    1
    14     7    13    1
    15     8    10    1
    16     8    14    1
    17    28    37    1
    18     4     5    1
    19    30    33    1
    20    30    38    1
    21    31    34    1
    22    31    39    1
    23    32    35    1
    24    32    40    1
    25    41    42    1
    26    41    43    1
    27    15    19    2
    28    16    22    2
    29    17    12    1
    30    17    19   ar
    31    17    20   ar
    32    18    19   ar
    33    18    22   ar
    34    18    23    1
    35     9    10    1
    36     9    11    1
    37    10    12    1
    38    11     5    1
    39    33    34    1
    40    33    35    1
    41    34    36    1
    42    35    37    1
    43    36    42    1
    44    20    21   ar
    45    21    22   ar
@<TRIPOS>MOLECULE
*****
 43 45 0 0 0
SMALL
GASTEIGER

@<TRIPOS>ATOM
      1 P          22.9740   71.9817   -2.7469 P.3     1  UNL1        0.2189
      2 O          23.5090   70.5253   -3.2055 O.co2   1  UNL1       -0.4371
      3 O          22.9091   72.1947   -1.2631 O.2     1  UNL1       -0.5170
      4 O          21.5754   72.1500   -3.5428 O.3     1  UNL1       -0.3112
      5 C          20.7282   71.0210   -3.6672 C.3     1  UNL1        0.1811
      6 O          18.8244   71.9991   -4.7593 O.3     1  UNL1       -0.3308
      7 O          17.1911   70.8719   -2.5115 O.3     1  UNL1       -0.3794
      8 O          16.7449   69.0866   -4.5240 O.3     1  UNL1       -0.3779
      9 C          18.3356   70.3199   -3.1602 C.3     1  UNL1        0.1713
     10 C          17.9629   69.8028   -4.5340 C.3     1  UNL1        0.1895
     11 C          19.2819   71.4654   -3.4975 C.3     1  UNL1        0.1764
     12 C          17.8795   71.0867   -5.3420 C.3     1  UNL1        0.2383
     13 H          16.5722   70.1591   -2.2861 H       1  UNL1        0.2105
     14 H          16.8490   68.2786   -3.9975 H       1  UNL1        0.2106
     15 O          16.0110   70.4501   -7.3622 O.2     1  UNL1       -0.2464
     16 O          19.2813   70.3422  -10.6079 O.2     1  UNL1       -0.2670
     17 N          18.2152   70.8871   -6.7236 N.ar    1  UNL1       -0.2551
     18 N          17.6409   70.3971   -8.9767 N.ar    1  UNL1       -0.2743
     19 C          17.2018   70.5699   -7.6579 C.ar    1  UNL1        0.3323
     20 C          19.5366   71.0066   -7.1400 C.ar    1  UNL1        0.0869
     21 C          19.9391   70.8374   -8.4012 C.ar    1  UNL1        0.0795
     22 C          18.9428   70.5040   -9.4396 C.ar    1  UNL1        0.2626
     23 H          16.9524   70.1752   -9.6450 H       1  UNL1        0.1734
     24 O          23.9614   72.9945   -3.5294 O.3     1  UNL1       -0.2703
     25 P          24.3353   74.5417   -3.2478 P.3     1  UNL1        0.2208
     26 O          25.6925   74.7568   -4.1019 O.co2   1  UNL1       -0.4371
     27 O          24.4577   74.8902   -1.7926 O.2     1  UNL1       -0.5170
     28 O          23.2137   75.3847   -4.0455 O.3     1  UNL1       -0.2858
     29 O          23.3777   75.1222   -6.3951 O.3     1  UNL1       -0.3258
     30 O          20.6869   78.2518   -6.2670 O.3     1  UNL1       -0.3794
     31 O          19.7791   75.6310   -7.0121 O.3     1  UNL1       -0.3794
     32 O          22.8756   78.1510   -4.3751 O.3     1  UNL1       -0.3775
     33 C          21.2981   77.0398   -5.8167 C.3     1  UNL1        0.1715
     34 C          21.1548   75.9912   -6.9216 C.3     1  UNL1        0.1694
     35 C          22.7720   77.3058   -5.5159 C.3     1  UNL1        0.1967
     36 C          22.0128   74.7538   -6.6256 C.3     1  UNL1        0.1761
     37 C          23.5448   76.0060   -5.2847 C.3     1  UNL1        0.2704
     38 H          19.7508   78.0899   -6.4593 H       1  UNL1        0.2105
     39 H          19.2483   76.4213   -7.1987 H       1  UNL1        0.2105
     40 H          22.3825   78.9704   -4.5342 H       1  UNL1        0.2106
     41 O          22.8605   72.6815   -7.4600 O.3     1  UNL1       -0.3794
     42 C          22.0084   73.7634   -7.7881 C.3     1  UNL1        0.1693
     43 H          22.8674   72.0430   -8.1907 H       1  UNL1        0.2105
@<TRIPOS>UNITY_ATOM_ATTR
2 1
charge -1
26 1
charge -1
@<TRIPOS>BOND
     1    25    28    1
     2    25    24    1
     3    25    26    1
     4    25    27    2
     5     1     4    1
     6     1    24    1
     7     1     2    1
     8     1     3    2
     9     6    11    1
    10     6    12    1
    11    29    36    1
    12    29    37    1
    13     7     9    1
    14     7    13    1
    15     8    10    1
    16     8    14    1
    17    28    37    1
    18     4     5    1
    19    30    33    1
    20    30    38    1
    21    31    34    1
    22    31    39    1
    23    32    35    1
    24    32    40    1
    25    41    42    1
    26    41    43    1
    27    15    19    2
    28    16    22    2
    29    17    12    1
    30    17    19   ar
    31    17    20   ar
    32    18    19   ar
    33    18    22   ar
    34    18    23    1
    35     9    10    1
    36     9    11    1
    37    10    12    1
    38    11     5    1
    39    33    34    1
    40    33    35    1
    41    34    36    1
    42    35    37    1
    43    36    42    1
    44    20    21   ar
    45    21    22   ar
@<TRIPOS>MOLECULE
*****
 43 45 0 0 0
SMALL
GASTEIGER

@<TRIPOS>ATOM
      1 P          21.7918   70.9569   -1.0804 P.3     1  UNL1        0.2189
      2 O          23.2924   70.5208   -1.4993 O.co2   1  UNL1       -0.4371
      3 O          20.8861   69.8237   -0.6973 O.2     1  UNL1       -0.5170
      4 O          21.2916   71.8679   -2.3205 O.3     1  UNL1       -0.3112
      5 C          20.5703   71.2451   -3.3691 C.3     1  UNL1        0.1811
      6 O          18.6830   72.1683   -4.5351 O.3     1  UNL1       -0.3308
      7 O          16.9926   70.9509   -2.3784 O.3     1  UNL1       -0.3794
      8 O          16.7044   69.1787   -4.4310 O.3     1  UNL1       -0.3779
      9 C          18.1849   70.4501   -2.9808 C.3     1  UNL1        0.1713
     10 C          17.8942   69.9390   -4.3765 C.3     1  UNL1        0.1895
     11 C          19.1023   71.6340   -3.2603 C.3     1  UNL1        0.1764
     12 C          17.7999   71.2302   -5.1716 C.3     1  UNL1        0.2383
     13 H          16.3910   70.2128   -2.1903 H       1  UNL1        0.2105
     14 H          16.8145   68.3679   -3.9103 H       1  UNL1        0.2106
     15 O          16.0829   70.3966   -7.2537 O.2     1  UNL1       -0.2464
     16 O          19.4637   70.6193  -10.3781 O.2     1  UNL1       -0.2670
     17 N          18.2050   71.0623   -6.5388 N.ar    1  UNL1       -0.2551
     18 N          17.7676   70.5084   -8.8078 N.ar    1  UNL1       -0.2743
     19 C          17.2649   70.6386   -7.5069 C.ar    1  UNL1        0.3323
     20 C          19.5213   71.3172   -6.9079 C.ar    1  UNL1        0.0869
     21 C          19.9851   71.1870   -8.1525 C.ar    1  UNL1        0.0795
     22 C          19.0676   70.7486   -9.2239 C.ar    1  UNL1        0.2626
     23 H          17.1309   70.2140   -9.4989 H       1  UNL1        0.1734
     24 O          22.0425   72.0430    0.0904 O.3     1  UNL1       -0.2703
     25 P          21.7096   73.6232    0.1614 P.3     1  UNL1        0.2208
     26 O          20.0923   73.6611    0.1842 O.co2   1  UNL1       -0.4371
     27 O          22.3325   74.4334   -0.9384 O.2     1  UNL1       -0.5170
     28 O          22.1487   74.0667    1.6498 O.3     1  UNL1       -0.2858
     29 O          23.9675   73.6412    3.1084 O.3     1  UNL1       -0.3258
     30 O          20.8496   73.0284    5.7455 O.3     1  UNL1       -0.3794
     31 O          22.4675   75.3890    5.9866 O.3     1  UNL1       -0.3794
     32 O          20.6130   72.1443    2.9992 O.3     1  UNL1       -0.3775
     33 C          21.5241   73.6469    4.6464 C.3     1  UNL1        0.1715
     34 C          22.8173   74.2752    5.1696 C.3     1  UNL1        0.1694
     35 C          21.8303   72.5881    3.5889 C.3     1  UNL1        0.1967
     36 C          23.7224   74.7234    4.0142 C.3     1  UNL1        0.1761
     37 C          22.7771   73.1221    2.5125 C.3     1  UNL1        0.2704
     38 H          20.6519   73.6954    6.4204 H       1  UNL1        0.2105
     39 H          21.8956   75.0924    6.7120 H       1  UNL1        0.2105
     40 H          20.0225   71.8084    3.6908 H       1  UNL1        0.2106
     41 O          25.7755   74.1081    5.0700 O.3     1  UNL1       -0.3794
     42 C          25.0834   75.2082    4.5088 C.3     1  UNL1        0.1693
     43 H          26.6438   74.4017    5.3888 H       1  UNL1        0.2105
@<TRIPOS>UNITY_ATOM_ATTR
2 1
charge -1
26 1
charge -1
@<TRIPOS>BOND
     1    25    28    1
     2    25    24    1
     3    25    26    1
     4    25    27    2
     5     1     4    1
     6     1    24    1
     7     1     2    1
     8     1     3    2
     9     6    11    1
    10     6    12    1
    11    29    36    1
    12    29    37    1
    13     7     9    1
    14     7    13    1
    15     8    10    1
    16     8    14    1
    17    28    37    1
    18     4     5    1
    19    30    33    1
    20    30    38    1
    21    31    34    1
    22    31    39    1
    23    32    35    1
    24    32    40    1
    25    41    42    1
    26    41    43    1
    27    15    19    2
    28    16    22    2
    29    17    12    1
    30    17    19   ar
    31    17    20   ar
    32    18    19   ar
    33    18    22   ar
    34    18    23    1
    35     9    10    1
    36     9    11    1
    37    10    12    1
    38    11     5    1
    39    33    34    1
    40    33    35    1
    41    34    36    1
    42    35    37    1
    43    36    42    1
    44    20    21   ar
    45    21    22   ar
@<TRIPOS>MOLECULE
*****
 43 45 0 0 0
SMALL
GASTEIGER

@<TRIPOS>ATOM
      1 P          22.5571   71.5321   -2.1759 P.3     1  UNL1        0.2189
      2 O          23.5932   70.8184   -3.1931 O.co2   1  UNL1       -0.4371
      3 O          23.0591   71.6957   -0.7713 O.2     1  UNL1       -0.5170
      4 O          21.1967   70.6718   -2.3401 O.3     1  UNL1       -0.3112
      5 C          20.5699   70.6339   -3.6104 C.3     1  UNL1        0.1811
      6 O          18.7839   71.7819   -4.7355 O.3     1  UNL1       -0.3308
      7 O          16.9857   70.6861   -2.6008 O.3     1  UNL1       -0.3794
      8 O          16.5042   69.0134   -4.7000 O.3     1  UNL1       -0.3779
      9 C          18.1163   70.0812   -3.2262 C.3     1  UNL1        0.1713
     10 C          17.7673   69.6435   -4.6334 C.3     1  UNL1        0.1895
     11 C          19.1511   71.1705   -3.4794 C.3     1  UNL1        0.1764
     12 C          17.8047   70.9597   -5.3912 C.3     1  UNL1        0.2383
     13 H          16.3112   70.0098   -2.4289 H       1  UNL1        0.2105
     14 H          16.5315   68.1808   -4.2031 H       1  UNL1        0.2106
     15 O          15.9831   70.5353   -7.5077 O.2     1  UNL1       -0.2464
     16 O          19.3717   70.3197  -10.6242 O.2     1  UNL1       -0.2670
     17 N          18.1835   70.7898   -6.7656 N.ar    1  UNL1       -0.2551
     18 N          17.6718   70.4285   -9.0578 N.ar    1  UNL1       -0.2743
     19 C          17.1907   70.5814   -7.7512 C.ar    1  UNL1        0.3323
     20 C          19.5264   70.8310   -7.1245 C.ar    1  UNL1        0.0869
     21 C          19.9688   70.6821   -8.3748 C.ar    1  UNL1        0.0795
     22 C          18.9964   70.4603   -9.4644 C.ar    1  UNL1        0.2626
     23 H          16.9983   70.2817   -9.7611 H       1  UNL1        0.1734
     24 O          22.2039   72.9178   -2.9297 O.3     1  UNL1       -0.2703
     25 P          23.1567   74.1136   -3.4542 P.3     1  UNL1        0.2208
     26 O          24.3974   73.3286   -4.1339 O.co2   1  UNL1       -0.4371
     27 O          23.5535   75.0958   -2.3904 O.2     1  UNL1       -0.5170
     28 O          22.3541   74.7606   -4.6961 O.3     1  UNL1       -0.2858
     29 O          20.0863   74.8535   -5.3781 O.3     1  UNL1       -0.3258
     30 O          21.8264   73.9036   -9.0004 O.3     1  UNL1       -0.3794
     31 O          20.7964   76.5502   -8.5727 O.3     1  UNL1       -0.3794
     32 O          22.8339   72.7178   -6.5594 O.3     1  UNL1       -0.3775
     33 C          21.7480   74.5296   -7.7169 C.3     1  UNL1        0.1715
     34 C          20.5269   75.4514   -7.7066 C.3     1  UNL1        0.1694
     35 C          21.6167   73.4514   -6.6428 C.3     1  UNL1        0.1967
     36 C          20.2221   75.9513   -6.2881 C.3     1  UNL1        0.1761
     37 C          21.2647   74.0512   -5.2803 C.3     1  UNL1        0.2704
     38 H          21.9103   74.5828   -9.6868 H       1  UNL1        0.2105
     39 H          20.9877   76.2208   -9.4650 H       1  UNL1        0.2105
     40 H          23.0455   72.3430   -7.4281 H       1  UNL1        0.2106
     41 O          18.1337   76.4034   -7.3572 O.3     1  UNL1       -0.3794
     42 C          18.9180   76.7437   -6.2288 C.3     1  UNL1        0.1693
     43 H          17.3003   76.9000   -7.3327 H       1  UNL1        0.2105
@<TRIPOS>UNITY_ATOM_ATTR
2 1
charge -1
26 1
charge -1
@<TRIPOS>BOND
     1    25    28    1
     2    25    24    1
     3    25    26    1
     4    25    27    2
     5     1     4    1
     6     1    24    1
     7     1     2    1
     8     1     3    2
     9     6    11    1
    10     6    12    1
    11    29    36    1
    12    29    37    1
    13     7     9    1
    14     7    13    1
    15     8    10    1
    16     8    14    1
    17    28    37    1
    18     4     5    1
    19    30    33    1
    20    30    38    1
    21    31    34    1
    22    31    39    1
    23    32    35    1
    24    32    40    1
    25    41    42    1
    26    41    43    1
    27    15    19    2
    28    16    22    2
    29    17    12    1
    30    17    19   ar
    31    17    20   ar
    32    18    19   ar
    33    18    22   ar
    34    18    23    1
    35     9    10    1
    36     9    11    1
    37    10    12    1
    38    11     5    1
    39    33    34    1
    40    33    35    1
    41    34    36    1
    42    35    37    1
    43    36    42    1
    44    20    21   ar
    45    21    22   ar
@<TRIPOS>MOLECULE
*****
 43 45 0 0 0
SMALL
GASTEIGER

@<TRIPOS>ATOM
      1 P          22.6499   72.9109   -4.3288 P.3     1  UNL1        0.2189
      2 O          22.7448   72.8328   -5.9420 O.co2   1  UNL1       -0.4371
      3 O          23.4443   71.8700   -3.5961 O.2     1  UNL1       -0.5170
      4 O          21.0592   72.9180   -4.0331 O.3     1  UNL1       -0.3112
      5 C          20.4646   71.7455   -3.5044 C.3     1  UNL1        0.1811
      6 O          18.4674   72.3827   -4.6786 O.3     1  UNL1       -0.3308
      7 O          16.9591   71.0706   -2.4438 O.3     1  UNL1       -0.3794
      8 O          16.8636   69.1858   -4.4123 O.3     1  UNL1       -0.3779
      9 C          18.1963   70.6894   -3.0431 C.3     1  UNL1        0.1713
     10 C          17.9540   70.0846   -4.4103 C.3     1  UNL1        0.1895
     11 C          18.9618   71.9606   -3.3887 C.3     1  UNL1        0.1764
     12 C          17.6966   71.3180   -5.2592 C.3     1  UNL1        0.2383
     13 H          16.4527   70.2752   -2.2140 H       1  UNL1        0.2105
     14 H          17.0761   68.4183   -3.8587 H       1  UNL1        0.2106
     15 O          16.0313   70.2990   -7.3004 O.2     1  UNL1       -0.2464
     16 O          19.3667   70.6703  -10.4593 O.2     1  UNL1       -0.2670
     17 N          18.1039   71.1382   -6.6242 N.ar    1  UNL1       -0.2551
     18 N          17.6934   70.4849   -8.8717 N.ar    1  UNL1       -0.2743
     19 C          17.1909   70.6181   -7.5710 C.ar    1  UNL1        0.3323
     20 C          19.3958   71.4763   -7.0121 C.ar    1  UNL1        0.0869
     21 C          19.8599   71.3420   -8.2563 C.ar    1  UNL1        0.0795
     22 C          18.9697   70.8058   -9.3061 C.ar    1  UNL1        0.2626
     23 H          17.0753   70.1242   -9.5481 H       1  UNL1        0.1734
     24 O          23.0850   74.4353   -4.0125 O.3     1  UNL1       -0.2703
     25 P          23.3490   75.1947   -2.6102 P.3     1  UNL1        0.2208
     26 O          22.4056   76.5049   -2.7143 O.co2   1  UNL1       -0.4371
     27 O          24.7944   75.4927   -2.3344 O.2     1  UNL1       -0.5170
     28 O          22.6344   74.2648   -1.5013 O.3     1  UNL1       -0.2858
     29 O          23.3803   74.8489    0.6711 O.3     1  UNL1       -0.3258
     30 O          21.2051   71.4662    1.6076 O.3     1  UNL1       -0.3794
     31 O          20.1799   74.0531    2.3182 O.3     1  UNL1       -0.3794
     32 O          22.7765   71.5457   -0.8222 O.3     1  UNL1       -0.3775
     33 C          21.5033   72.6658    0.8883 C.3     1  UNL1        0.1715
     34 C          21.5176   73.8295    1.8814 C.3     1  UNL1        0.1694
     35 C          22.8660   72.5178    0.2139 C.3     1  UNL1        0.1967
     36 C          22.0890   75.1001    1.2378 C.3     1  UNL1        0.1761
     37 C          23.3647   73.8494   -0.3500 C.3     1  UNL1        0.2704
     38 H          20.3409   71.5535    2.0377 H       1  UNL1        0.2105
     39 H          19.8307   73.2431    2.7222 H       1  UNL1        0.2105
     40 H          22.4600   70.7073   -0.4524 H       1  UNL1        0.2106
     41 O          22.5053   75.6561    3.5240 O.3     1  UNL1       -0.3794
     42 C          22.2591   76.2285    2.2527 C.3     1  UNL1        0.1693
     43 H          22.6160   76.3626    4.1800 H       1  UNL1        0.2105
@<TRIPOS>UNITY_ATOM_ATTR
2 1
charge -1
26 1
charge -1
@<TRIPOS>BOND
     1    25    28    1
     2    25    24    1
     3    25    26    1
     4    25    27    2
     5     1     4    1
     6     1    24    1
     7     1     2    1
     8     1     3    2
     9     6    11    1
    10     6    12    1
    11    29    36    1
    12    29    37    1
    13     7     9    1
    14     7    13    1
    15     8    10    1
    16     8    14    1
    17    28    37    1
    18     4     5    1
    19    30    33    1
    20    30    38    1
    21    31    34    1
    22    31    39    1
    23    32    35    1
    24    32    40    1
    25    41    42    1
    26    41    43    1
    27    15    19    2
    28    16    22    2
    29    17    12    1
    30    17    19   ar
    31    17    20   ar
    32    18    19   ar
    33    18    22   ar
    34    18    23    1
    35     9    10    1
    36     9    11    1
    37    10    12    1
    38    11     5    1
    39    33    34    1
    40    33    35    1
    41    34    36    1
    42    35    37    1
    43    36    42    1
    44    20    21   ar
    45    21    22   ar
@<TRIPOS>MOLECULE
*****
 43 45 0 0 0
SMALL
GASTEIGER

@<TRIPOS>ATOM
      1 P          22.2874   73.3772   -5.3085 P.3     1  UNL1        0.2189
      2 O          22.7552   74.7432   -6.0382 O.co2   1  UNL1       -0.4371
      3 O          23.3984   72.5667   -4.7083 O.2     1  UNL1       -0.5170
      4 O          21.3944   72.6247   -6.4284 O.3     1  UNL1       -0.3112
      5 C          20.8424   73.3945   -7.4823 C.3     1  UNL1        0.1811
      6 O          20.0143   71.1711   -7.8627 O.3     1  UNL1       -0.3308
      7 O          18.5289   72.3253  -10.1976 O.3     1  UNL1       -0.3794
      8 O          16.5872   72.1372   -8.2921 O.3     1  UNL1       -0.3779
      9 C          18.8040   72.9093   -8.9254 C.3     1  UNL1        0.1713
     10 C          17.9243   72.2884   -7.8605 C.3     1  UNL1        0.1895
     11 C          20.1936   72.4585   -8.4927 C.3     1  UNL1        0.1764
     12 C          18.6146   70.9568   -7.6186 C.3     1  UNL1        0.2383
     13 H          17.6466   72.5993  -10.4950 H       1  UNL1        0.2105
     14 H          16.1917   73.0117   -8.4322 H       1  UNL1        0.2106
     15 O          16.2711   69.7125   -6.6501 O.2     1  UNL1       -0.2464
     16 O          18.0664   69.1971   -2.4367 O.2     1  UNL1       -0.2670
     17 N          18.4425   70.4872   -6.2728 N.ar    1  UNL1       -0.2551
     18 N          17.1670   69.4567   -4.5530 N.ar    1  UNL1       -0.2743
     19 C          17.2258   69.8773   -5.8878 C.ar    1  UNL1        0.3323
     20 C          19.4733   70.6330   -5.3508 C.ar    1  UNL1        0.0869
     21 C          19.4009   70.2277   -4.0812 C.ar    1  UNL1        0.0795
     22 C          18.1640   69.5805   -3.5983 C.ar    1  UNL1        0.2626
     23 H          16.3289   69.0294   -4.2620 H       1  UNL1        0.1734
     24 O          21.1815   73.8921   -4.2478 O.3     1  UNL1       -0.2703
     25 P          21.3318   74.4055   -2.7225 P.3     1  UNL1        0.2208
     26 O          19.8806   75.0445   -2.4013 O.co2   1  UNL1       -0.4371
     27 O          22.4839   75.3419   -2.4991 O.2     1  UNL1       -0.5170
     28 O          21.3868   73.0550   -1.8404 O.3     1  UNL1       -0.2858
     29 O          22.9807   73.4346   -0.1281 O.3     1  UNL1       -0.3258
     30 O          21.9722   69.5308    0.7630 O.3     1  UNL1       -0.3794
     31 O          21.0674   71.6544    2.4717 O.3     1  UNL1       -0.3794
     32 O          22.1914   70.3712   -1.9984 O.3     1  UNL1       -0.3775
     33 C          21.7350   70.8678    0.3138 C.3     1  UNL1        0.1715
     34 C          22.0593   71.8244    1.4630 C.3     1  UNL1        0.1694
     35 C          22.6270   71.1547   -0.8926 C.3     1  UNL1        0.1967
     36 C          22.0867   73.2809    0.9804 C.3     1  UNL1        0.1761
     37 C          22.6203   72.6397   -1.2595 C.3     1  UNL1        0.2704
     38 H          21.4085   69.3421    1.5286 H       1  UNL1        0.2105
     39 H          21.0602   70.7305    2.7674 H       1  UNL1        0.2105
     40 H          22.2004   69.4332   -1.7535 H       1  UNL1        0.2106
     41 O          22.4170   75.5640    1.6026 O.3     1  UNL1       -0.3794
     42 C          22.5619   74.2365    2.0726 C.3     1  UNL1        0.1693
     43 H          22.7153   76.1833    2.2875 H       1  UNL1        0.2105
@<TRIPOS>UNITY_ATOM_ATTR
2 1
charge -1
26 1
charge -1
@<TRIPOS>BOND
     1    25    28    1
     2    25    24    1
     3    25    26    1
     4    25    27    2
     5     1     4    1
     6     1    24    1
     7     1     2    1
     8     1     3    2
     9     6    11    1
    10     6    12    1
    11    29    36    1
    12    29    37    1
    13     7     9    1
    14     7    13    1
    15     8    10    1
    16     8    14    1
    17    28    37    1
    18     4     5    1
    19    30    33    1
    20    30    38    1
    21    31    34    1
    22    31    39    1
    23    32    35    1
    24    32    40    1
    25    41    42    1
    26    41    43    1
    27    15    19    2
    28    16    22    2
    29    17    12    1
    30    17    19   ar
    31    17    20   ar
    32    18    19   ar
    33    18    22   ar
    34    18    23    1
    35     9    10    1
    36     9    11    1
    37    10    12    1
    38    11     5    1
    39    33    34    1
    40    33    35    1
    41    34    36    1
    42    35    37    1
    43    36    42    1
    44    20    21   ar
    45    21    22   ar
@<TRIPOS>MOLECULE
*****
 43 45 0 0 0
SMALL
GASTEIGER

@<TRIPOS>ATOM
      1 P          23.5065   73.4695   -3.9486 P.3     1  UNL1        0.2189
      2 O          24.9248   74.2054   -3.6951 O.co2   1  UNL1       -0.4371
      3 O          23.4807   72.0085   -3.6076 O.2     1  UNL1       -0.5170
      4 O          23.1455   73.8395   -5.4818 O.3     1  UNL1       -0.3112
      5 C          21.7817   73.8840   -5.8635 C.3     1  UNL1        0.1811
      6 O          21.0535   73.0933   -8.0125 O.3     1  UNL1       -0.3308
      7 O          21.2336   75.9470   -8.9150 O.3     1  UNL1       -0.3794
      8 O          18.5585   75.6240   -8.4953 O.3     1  UNL1       -0.3779
      9 C          20.8296   75.4245   -7.6505 C.3     1  UNL1        0.1713
     10 C          19.4466   74.8155   -7.7508 C.3     1  UNL1        0.1895
     11 C          21.6927   74.2057   -7.3490 C.3     1  UNL1        0.1764
     12 C          19.7358   73.4870   -8.4288 C.3     1  UNL1        0.2383
     13 H          20.6965   76.7266   -9.1291 H       1  UNL1        0.2105
     14 H          18.4063   76.4572   -8.0228 H       1  UNL1        0.2106
     15 O          19.0025   71.3085  -10.0703 O.2     1  UNL1       -0.2464
     16 O          16.1430   69.6245   -6.8721 O.2     1  UNL1       -0.2670
     17 N          18.8021   72.4642   -8.0501 N.ar    1  UNL1       -0.2551
     18 N          17.5795   70.4717   -8.4764 N.ar    1  UNL1       -0.2743
     19 C          18.5022   71.4139   -8.9486 C.ar    1  UNL1        0.3323
     20 C          18.1949   72.5086   -6.7998 C.ar    1  UNL1        0.0869
     21 C          17.3161   71.6031   -6.3651 C.ar    1  UNL1        0.0795
     22 C          16.9480   70.4733   -7.2428 C.ar    1  UNL1        0.2626
     23 H          17.3549   69.7312   -9.0855 H       1  UNL1        0.1734
     24 O          22.4701   74.3763   -3.1023 O.3     1  UNL1       -0.2703
     25 P          22.4839   74.8388   -1.5535 P.3     1  UNL1        0.2208
     26 O          21.0056   75.4602   -1.3386 O.co2   1  UNL1       -0.4371
     27 O          23.6054   75.7721   -1.1999 O.2     1  UNL1       -0.5170
     28 O          22.4720   73.4596   -0.7152 O.3     1  UNL1       -0.2858
     29 O          20.2648   72.7414   -1.1938 O.3     1  UNL1       -0.3258
     30 O          21.6968   69.3148    0.6115 O.3     1  UNL1       -0.3794
     31 O          21.2645   69.3471   -2.2275 O.3     1  UNL1       -0.3794
     32 O          22.4706   71.9130    1.6264 O.3     1  UNL1       -0.3775
     33 C          21.7769   70.4948   -0.1926 C.3     1  UNL1        0.1715
     34 C          20.7816   70.3574   -1.3464 C.3     1  UNL1        0.1694
     35 C          21.4372   71.7098    0.6687 C.3     1  UNL1        0.1967
     36 C          20.6161   71.6860   -2.0964 C.3     1  UNL1        0.1761
     37 C          21.2460   72.9681   -0.1800 C.3     1  UNL1        0.2704
     38 H          21.9118   68.5397    0.0707 H       1  UNL1        0.2105
     39 H          21.3650   68.5135   -1.7415 H       1  UNL1        0.2105
     40 H          22.5817   71.1096    2.1575 H       1  UNL1        0.2106
     41 O          18.2815   71.3711   -2.4954 O.3     1  UNL1       -0.3794
     42 C          19.5129   71.6145   -3.1500 C.3     1  UNL1        0.1693
     43 H          17.5700   71.3233   -3.1536 H       1  UNL1        0.2105
@<TRIPOS>UNITY_ATOM_ATTR
2 1
charge -1
26 1
charge -1
@<TRIPOS>BOND
     1    25    28    1
     2    25    24    1
     3    25    26    1
     4    25    27    2
     5     1     4    1
     6     1    24    1
     7     1     2    1
     8     1     3    2
     9     6    11    1
    10     6    12    1
    11    29    36    1
    12    29    37    1
    13     7     9    1
    14     7    13    1
    15     8    10    1
    16     8    14    1
    17    28    37    1
    18     4     5    1
    19    30    33    1
    20    30    38    1
    21    31    34    1
    22    31    39    1
    23    32    35    1
    24    32    40    1
    25    41    42    1
    26    41    43    1
    27    15    19    2
    28    16    22    2
    29    17    12    1
    30    17    19   ar
    31    17    20   ar
    32    18    19   ar
    33    18    22   ar
    34    18    23    1
    35     9    10    1
    36     9    11    1
    37    10    12    1
    38    11     5    1
    39    33    34    1
    40    33    35    1
    41    34    36    1
    42    35    37    1
    43    36    42    1
    44    20    21   ar
    45    21    22   ar
@<TRIPOS>MOLECULE
*****
 43 45 0 0 0
SMALL
GASTEIGER

@<TRIPOS>ATOM
      1 P          22.8673   72.1199   -2.8633 P.3     1  UNL1        0.2189
      2 O          23.7094   72.5410   -4.1789 O.co2   1  UNL1       -0.4371
      3 O          23.1986   70.7673   -2.3047 O.2     1  UNL1       -0.5170
      4 O          21.3256   72.3407   -3.3018 O.3     1  UNL1       -0.3112
      5 C          20.5185   71.1993   -3.5334 C.3     1  UNL1        0.1811
      6 O          18.6372   72.1091   -4.7196 O.3     1  UNL1       -0.3308
      7 O          16.9388   70.9493   -2.5376 O.3     1  UNL1       -0.3794
      8 O          16.6396   69.1352   -4.5515 O.3     1  UNL1       -0.3779
      9 C          18.1280   70.4281   -3.1287 C.3     1  UNL1        0.1713
     10 C          17.8343   69.8889   -4.5131 C.3     1  UNL1        0.1895
     11 C          19.0530   71.5998   -3.4334 C.3     1  UNL1        0.1764
     12 C          17.7483   71.1631   -5.3359 C.3     1  UNL1        0.2383
     13 H          16.3325   70.2194   -2.3337 H       1  UNL1        0.2105
     14 H          16.7445   68.3350   -4.0134 H       1  UNL1        0.2106
     15 O          15.9986   70.4268   -7.4274 O.2     1  UNL1       -0.2464
     16 O          19.4102   70.4227  -10.5262 O.2     1  UNL1       -0.2670
     17 N          18.1524   70.9632   -6.6990 N.ar    1  UNL1       -0.2551
     18 N          17.6987   70.4255   -8.9687 N.ar    1  UNL1       -0.2743
     19 C          17.1952   70.5936   -7.6725 C.ar    1  UNL1        0.3323
     20 C          19.4848   71.1340   -7.0590 C.ar    1  UNL1        0.0869
     21 C          19.9490   70.9686   -8.2993 C.ar    1  UNL1        0.0795
     22 C          19.0141   70.5824   -9.3758 C.ar    1  UNL1        0.2626
     23 H          17.0502   70.1676   -9.6634 H       1  UNL1        0.1734
     24 O          23.1366   73.3504   -1.8502 O.3     1  UNL1       -0.2703
     25 P          23.5854   74.8778   -2.1308 P.3     1  UNL1        0.2208
     26 O          23.5719   75.5452   -0.6571 O.co2   1  UNL1       -0.4371
     27 O          22.7369   75.5926   -3.1422 O.2     1  UNL1       -0.5170
     28 O          25.1489   74.7793   -2.5193 O.3     1  UNL1       -0.2858
     29 O          27.0357   76.1314   -2.0412 O.3     1  UNL1       -0.3258
     30 O          27.8069   75.3028   -6.0123 O.3     1  UNL1       -0.3794
     31 O          29.3955   74.0573   -3.9695 O.3     1  UNL1       -0.3794
     32 O          25.0893   75.7837   -5.1390 O.3     1  UNL1       -0.3775
     33 C          27.3316   75.0263   -4.6921 C.3     1  UNL1        0.1715
     34 C          28.5097   75.1459   -3.7233 C.3     1  UNL1        0.1694
     35 C          26.2376   76.0308   -4.3348 C.3     1  UNL1        0.1967
     36 C          28.0320   75.1269   -2.2651 C.3     1  UNL1        0.1761
     37 C          25.8707   75.9625   -2.8513 C.3     1  UNL1        0.2704
     38 H          28.5015   74.6682   -6.2455 H       1  UNL1        0.2105
     39 H          29.6894   74.0805   -4.8938 H       1  UNL1        0.2105
     40 H          25.3346   75.8300   -6.0758 H       1  UNL1        0.2106
     41 O          29.9628   74.2340   -1.1772 O.3     1  UNL1       -0.3794
     42 C          29.1713   75.4027   -1.2864 C.3     1  UNL1        0.1693
     43 H          30.6922   74.3949   -0.5576 H       1  UNL1        0.2105
@<TRIPOS>UNITY_ATOM_ATTR
2 1
charge -1
26 1
charge -1
@<TRIPOS>BOND
     1    25    28    1
     2    25    24    1
     3    25    26    1
     4    25    27    2
     5     1     4    1
     6     1    24    1
     7     1     2    1
     8     1     3    2
     9     6    11    1
    10     6    12    1
    11    29    36    1
    12    29    37    1
    13     7     9    1
    14     7    13    1
    15     8    10    1
    16     8    14    1
    17    28    37    1
    18     4     5    1
    19    30    33    1
    20    30    38    1
    21    31    34    1
    22    31    39    1
    23    32    35    1
    24    32    40    1
    25    41    42    1
    26    41    43    1
    27    15    19    2
    28    16    22    2
    29    17    12    1
    30    17    19   ar
    31    17    20   ar
    32    18    19   ar
    33    18    22   ar
    34    18    23    1
    35     9    10    1
    36     9    11    1
    37    10    12    1
    38    11     5    1
    39    33    34    1
    40    33    35    1
    41    34    36    1
    42    35    37    1
    43    36    42    1
    44    20    21   ar
    45    21    22   ar
@<TRIPOS>MOLECULE
*****
 43 45 0 0 0
SMALL
GASTEIGER

@<TRIPOS>ATOM
      1 P          22.2990   71.0299   -2.9695 P.3     1  UNL1        0.2189
      2 O          23.7580   70.3869   -3.2436 O.co2   1  UNL1       -0.4371
      3 O          21.9221   72.1589   -3.8832 O.2     1  UNL1       -0.5170
      4 O          22.3199   71.3812   -1.3902 O.3     1  UNL1       -0.3112
      5 C          22.2105   72.7384   -0.9980 C.3     1  UNL1        0.1811
      6 O          21.1609   72.7056    1.1633 O.3     1  UNL1       -0.3308
      7 O          18.9493   74.2928   -0.0938 O.3     1  UNL1       -0.3794
      8 O          20.3747   76.2042    1.2295 O.3     1  UNL1       -0.3779
      9 C          20.3532   74.3486   -0.3413 C.3     1  UNL1        0.1713
     10 C          21.0613   75.0456    0.8016 C.3     1  UNL1        0.1895
     11 C          20.9042   72.9317   -0.2400 C.3     1  UNL1        0.1764
     12 C          21.0922   73.9589    1.8628 C.3     1  UNL1        0.2383
     13 H          18.5749   75.1862   -0.1535 H       1  UNL1        0.2105
     14 H          20.3827   76.8655    0.5200 H       1  UNL1        0.2106
     15 O          23.6215   74.9236    1.0569 O.2     1  UNL1       -0.2464
     16 O          25.3886   74.3476    5.2743 O.2     1  UNL1       -0.2670
     17 N          22.2310   74.0721    2.7298 N.ar    1  UNL1       -0.2551
     18 N          24.4993   74.6362    3.1576 N.ar    1  UNL1       -0.2743
     19 C          23.4559   74.5680    2.2255 C.ar    1  UNL1        0.3323
     20 C          22.1266   73.6940    4.0639 C.ar    1  UNL1        0.0869
     21 C          23.1314   73.7641    4.9395 C.ar    1  UNL1        0.0795
     22 C          24.4451   74.2712    4.4934 C.ar    1  UNL1        0.2626
     23 H          25.3623   74.9783    2.8288 H       1  UNL1        0.1734
     24 O          21.3171   69.7480   -3.0436 O.3     1  UNL1       -0.2703
     25 P          19.7533   69.6300   -3.4353 P.3     1  UNL1        0.2208
     26 O          19.0635   70.8091   -2.5684 O.co2   1  UNL1       -0.4371
     27 O          19.1632   68.2683   -3.2084 O.2     1  UNL1       -0.5170
     28 O          19.6745   70.1472   -4.9622 O.3     1  UNL1       -0.2858
     29 O          19.5116   72.0784   -6.3261 O.3     1  UNL1       -0.3258
     30 O          15.9417   70.2607   -7.3273 O.3     1  UNL1       -0.3794
     31 O          18.0988   70.2894   -9.2230 O.3     1  UNL1       -0.3794
     32 O          16.8925   70.1685   -4.5947 O.3     1  UNL1       -0.3775
     33 C          17.3233   70.3051   -6.9605 C.3     1  UNL1        0.1715
     34 C          18.0811   71.0818   -8.0390 C.3     1  UNL1        0.1694
     35 C          17.4580   70.9966   -5.6051 C.3     1  UNL1        0.1967
     36 C          19.5128   71.4017   -7.5885 C.3     1  UNL1        0.1761
     37 C          18.9177   71.3136   -5.2753 C.3     1  UNL1        0.2704
     38 H          15.8492   69.8223   -8.1868 H       1  UNL1        0.2105
     39 H          17.1887   70.0941   -9.4965 H       1  UNL1        0.2105
     40 H          15.9683   69.9753   -4.8149 H       1  UNL1        0.2106
     41 O          19.2649   73.0038   -9.3437 O.3     1  UNL1       -0.3794
     42 C          20.2352   72.3102   -8.5810 C.3     1  UNL1        0.1693
     43 H          19.7101   73.5862   -9.9795 H       1  UNL1        0.2105
@<TRIPOS>UNITY_ATOM_ATTR
2 1
charge -1
26 1
charge -1
@<TRIPOS>BOND
     1    25    28    1
     2    25    24    1
     3    25    26    1
     4    25    27    2
     5     1     4    1
     6     1    24    1
     7     1     2    1
     8     1     3    2
     9     6    11    1
    10     6    12    1
    11    29    36    1
    12    29    37    1
    13     7     9    1
    14     7    13    1
    15     8    10    1
    16     8    14    1
    17    28    37    1
    18     4     5    1
    19    30    33    1
    20    30    38    1
    21    31    34    1
    22    31    39    1
    23    32    35    1
    24    32    40    1
    25    41    42    1
    26    41    43    1
    27    15    19    2
    28    16    22    2
    29    17    12    1
    30    17    19   ar
    31    17    20   ar
    32    18    19   ar
    33    18    22   ar
    34    18    23    1
    35     9    10    1
    36     9    11    1
    37    10    12    1
    38    11     5    1
    39    33    34    1
    40    33    35    1
    41    34    36    1
    42    35    37    1
    43    36    42    1
    44    20    21   ar
    45    21    22   ar
@<TRIPOS>MOLECULE
*****
 43 45 0 0 0
SMALL
GASTEIGER

@<TRIPOS>ATOM
      1 P          22.9070   73.6955   -3.7921 P.3     1  UNL1        0.2189
      2 O          23.8508   72.3868   -3.9113 O.co2   1  UNL1       -0.4371
      3 O          23.2594   74.6312   -2.6733 O.2     1  UNL1       -0.5170
      4 O          21.4068   73.0905   -3.7559 O.3     1  UNL1       -0.3112
      5 C          20.5393   73.4960   -2.7116 C.3     1  UNL1        0.1811
      6 O          18.8895   71.7494   -2.6735 O.3     1  UNL1       -0.3308
      7 O          20.7532   70.2856   -0.8364 O.3     1  UNL1       -0.3794
      8 O          21.2013   69.0652   -3.2336 O.3     1  UNL1       -0.3779
      9 C          21.0577   71.1247   -1.9493 C.3     1  UNL1        0.1713
     10 C          20.7556   70.4061   -3.2478 C.3     1  UNL1        0.1895
     11 C          20.0434   72.2613   -1.9714 C.3     1  UNL1        0.1764
     12 C          19.2425   70.5185   -3.3255 C.3     1  UNL1        0.2383
     13 H          21.3880   69.5523   -0.8013 H       1  UNL1        0.2105
     14 H          22.1697   69.0467   -3.1835 H       1  UNL1        0.2106
     15 O          16.6224   69.8153   -4.1118 O.2     1  UNL1       -0.2464
     16 O          17.5215   70.6915   -8.5464 O.2     1  UNL1       -0.2670
     17 N          18.7648   70.5540   -4.6790 N.ar    1  UNL1       -0.2551
     18 N          17.0722   70.2523   -6.3192 N.ar    1  UNL1       -0.2743
     19 C          17.4316   70.1800   -4.9673 C.ar    1  UNL1        0.3323
     20 C          19.6146   70.9566   -5.7035 C.ar    1  UNL1        0.0869
     21 C          19.2568   71.0188   -6.9877 C.ar    1  UNL1        0.0795
     22 C          17.8809   70.6449   -7.3740 C.ar    1  UNL1        0.2626
     23 H          16.1482   69.9961   -6.5439 H       1  UNL1        0.1734
     24 O          23.0006   74.3468   -5.2685 O.3     1  UNL1       -0.2703
     25 P          23.1097   75.8880   -5.7439 P.3     1  UNL1        0.2208
     26 O          24.4017   76.4344   -4.9379 O.co2   1  UNL1       -0.4371
     27 O          21.8590   76.6893   -5.5255 O.2     1  UNL1       -0.5170
     28 O          23.5926   75.8079   -7.2819 O.3     1  UNL1       -0.2858
     29 O          22.5829   76.7587   -9.2036 O.3     1  UNL1       -0.3258
     30 O          24.0717   73.2943  -10.8864 O.3     1  UNL1       -0.3794
     31 O          25.3173   75.8114  -11.4871 O.3     1  UNL1       -0.3794
     32 O          22.9570   73.2389   -8.2155 O.3     1  UNL1       -0.3775
     33 C          24.0703   74.4152   -9.9982 C.3     1  UNL1        0.1715
     34 C          24.0538   75.6933  -10.8391 C.3     1  UNL1        0.1694
     35 C          22.8330   74.3431   -9.1053 C.3     1  UNL1        0.1967
     36 C          23.7832   76.9267   -9.9670 C.3     1  UNL1        0.1761
     37 C          22.6285   75.6384   -8.3177 C.3     1  UNL1        0.2704
     38 H          24.8550   73.3338  -11.4559 H       1  UNL1        0.2105
     39 H          25.4761   75.0260  -12.0341 H       1  UNL1        0.2105
     40 H          23.0857   72.4250   -8.7262 H       1  UNL1        0.2106
     41 O          22.9269   79.1566  -10.0222 O.3     1  UNL1       -0.3794
     42 C          23.6060   78.1915  -10.8043 C.3     1  UNL1        0.1693
     43 H          22.8073   79.9672  -10.5422 H       1  UNL1        0.2105
@<TRIPOS>UNITY_ATOM_ATTR
2 1
charge -1
26 1
charge -1
@<TRIPOS>BOND
     1    25    28    1
     2    25    24    1
     3    25    26    1
     4    25    27    2
     5     1     4    1
     6     1    24    1
     7     1     2    1
     8     1     3    2
     9     6    11    1
    10     6    12    1
    11    29    36    1
    12    29    37    1
    13     7     9    1
    14     7    13    1
    15     8    10    1
    16     8    14    1
    17    28    37    1
    18     4     5    1
    19    30    33    1
    20    30    38    1
    21    31    34    1
    22    31    39    1
    23    32    35    1
    24    32    40    1
    25    41    42    1
    26    41    43    1
    27    15    19    2
    28    16    22    2
    29    17    12    1
    30    17    19   ar
    31    17    20   ar
    32    18    19   ar
    33    18    22   ar
    34    18    23    1
    35     9    10    1
    36     9    11    1
    37    10    12    1
    38    11     5    1
    39    33    34    1
    40    33    35    1
    41    34    36    1
    42    35    37    1
    43    36    42    1
    44    20    21   ar
    45    21    22   ar
@<TRIPOS>MOLECULE
*****
 43 45 0 0 0
SMALL
GASTEIGER

@<TRIPOS>ATOM
      1 P          22.7304   72.7763   -4.1069 P.3     1  UNL1        0.2189
      2 O          22.7081   72.6044   -5.7154 O.co2   1  UNL1       -0.4371
      3 O          23.5477   71.7551   -3.3716 O.2     1  UNL1       -0.5170
      4 O          21.1655   72.8476   -3.7021 O.3     1  UNL1       -0.3112
      5 C          20.4854   71.6379   -3.4157 C.3     1  UNL1        0.1811
      6 O          18.5313   72.3390   -4.6255 O.3     1  UNL1       -0.3308
      7 O          16.9420   71.1316   -2.3879 O.3     1  UNL1       -0.3794
      8 O          16.7892   69.2185   -4.3252 O.3     1  UNL1       -0.3779
      9 C          18.1688   70.6875   -2.9651 C.3     1  UNL1        0.1713
     10 C          17.9169   70.0699   -4.3248 C.3     1  UNL1        0.1895
     11 C          18.9919   71.9188   -3.3226 C.3     1  UNL1        0.1764
     12 C          17.7226   71.2981   -5.1976 C.3     1  UNL1        0.2383
     13 H          16.3993   70.3626   -2.1510 H       1  UNL1        0.2105
     14 H          16.9620   68.4524   -3.7560 H       1  UNL1        0.2106
     15 O          16.0186   70.3948   -7.2613 O.2     1  UNL1       -0.2464
     16 O          19.4258   70.4850  -10.3636 O.2     1  UNL1       -0.2670
     17 N          18.1379   71.0773   -6.5541 N.ar    1  UNL1       -0.2551
     18 N          17.7165   70.4406   -8.8043 N.ar    1  UNL1       -0.2743
     19 C          17.2037   70.6218   -7.5135 C.ar    1  UNL1        0.3323
     20 C          19.4584   71.3123   -6.9215 C.ar    1  UNL1        0.0869
     21 C          19.9317   71.1334   -8.1565 C.ar    1  UNL1        0.0795
     22 C          19.0209   70.6592   -9.2184 C.ar    1  UNL1        0.2626
     23 H          17.0840   70.1234   -9.4893 H       1  UNL1        0.1734
     24 O          23.2261   74.3024   -3.9113 O.3     1  UNL1       -0.2703
     25 P          22.8341   75.6557   -4.7036 P.3     1  UNL1        0.2208
     26 O          23.7382   76.7850   -3.9791 O.co2   1  UNL1       -0.4371
     27 O          21.3632   75.9558   -4.7186 O.2     1  UNL1       -0.5170
     28 O          23.4958   75.4796   -6.1652 O.3     1  UNL1       -0.2858
     29 O          23.7895   76.6540   -8.2026 O.3     1  UNL1       -0.3258
     30 O          21.9493   73.2564   -9.6588 O.3     1  UNL1       -0.3794
     31 O          24.7502   73.6693  -10.1410 O.3     1  UNL1       -0.3794
     32 O          21.0983   74.3905   -7.1351 O.3     1  UNL1       -0.3775
     33 C          22.8048   74.0044   -8.7905 C.3     1  UNL1        0.1715
     34 C          23.8798   74.6815   -9.6429 C.3     1  UNL1        0.1694
     35 C          21.9725   75.0472   -8.0467 C.3     1  UNL1        0.1967
     36 C          24.6703   75.7102   -8.8232 C.3     1  UNL1        0.1761
     37 C          22.8567   76.0505   -7.3040 C.3     1  UNL1        0.2704
     38 H          22.4715   72.5921  -10.1337 H       1  UNL1        0.2105
     39 H          24.2386   73.0260  -10.6563 H       1  UNL1        0.2105
     40 H          20.5438   73.7583   -7.6176 H       1  UNL1        0.2106
     41 O          25.0354   77.7461  -10.0194 O.3     1  UNL1       -0.3794
     42 C          25.6405   76.5091   -9.6906 C.3     1  UNL1        0.1693
     43 H          25.6417   78.2654  -10.5711 H       1  UNL1        0.2105
@<TRIPOS>UNITY_ATOM_ATTR
2 1
charge -1
26 1
charge -1
@<TRIPOS>BOND
     1    25    28    1
     2    25    24    1
     3    25    26    1
     4    25    27    2
     5     1     4    1
     6     1    24    1
     7     1     2    1
     8     1     3    2
     9     6    11    1
    10     6    12    1
    11    29    36    1
    12    29    37    1
    13     7     9    1
    14     7    13    1
    15     8    10    1
    16     8    14    1
    17    28    37    1
    18     4     5    1
    19    30    33    1
    20    30    38    1
    21    31    34    1
    22    31    39    1
    23    32    35    1
    24    32    40    1
    25    41    42    1
    26    41    43    1
    27    15    19    2
    28    16    22    2
    29    17    12    1
    30    17    19   ar
    31    17    20   ar
    32    18    19   ar
    33    18    22   ar
    34    18    23    1
    35     9    10    1
    36     9    11    1
    37    10    12    1
    38    11     5    1
    39    33    34    1
    40    33    35    1
    41    34    36    1
    42    35    37    1
    43    36    42    1
    44    20    21   ar
    45    21    22   ar
@<TRIPOS>MOLECULE
*****
 43 45 0 0 0
SMALL
GASTEIGER

@<TRIPOS>ATOM
      1 P          22.6317   72.2750   -3.4388 P.3     1  UNL1        0.2189
      2 O          22.4366   70.7074   -3.0897 O.co2   1  UNL1       -0.4371
      3 O          23.9777   72.6379   -3.9939 O.2     1  UNL1       -0.5170
      4 O          22.2072   73.0327   -2.0737 O.3     1  UNL1       -0.3112
      5 C          21.1914   74.0187   -2.1355 C.3     1  UNL1        0.1811
      6 O          20.5012   72.9354   -0.1048 O.3     1  UNL1       -0.3308
      7 O          17.8085   74.1640   -0.5850 O.3     1  UNL1       -0.3794
      8 O          18.8861   75.8125    1.3012 O.3     1  UNL1       -0.3779
      9 C          19.1044   74.6991   -0.8491 C.3     1  UNL1        0.1713
     10 C          19.7716   75.1228    0.4428 C.3     1  UNL1        0.1895
     11 C          19.9996   73.5552   -1.3091 C.3     1  UNL1        0.1764
     12 C          20.2226   73.7902    1.0162 C.3     1  UNL1        0.2383
     13 H          17.2189   74.8762   -0.2900 H       1  UNL1        0.2105
     14 H          18.6282   76.6532    0.8922 H       1  UNL1        0.2106
     15 O          21.0422   71.9029    2.9513 O.2     1  UNL1       -0.2464
     16 O          24.7899   74.3602    4.0269 O.2     1  UNL1       -0.2670
     17 N          21.4087   73.9115    1.8162 N.ar    1  UNL1       -0.2551
     18 N          22.9077   73.1279    3.4852 N.ar    1  UNL1       -0.2743
     19 C          21.7293   72.9084    2.7604 C.ar    1  UNL1        0.3323
     20 C          22.2398   75.0155    1.6603 C.ar    1  UNL1        0.0869
     21 C          23.3593   75.2106    2.3602 C.ar    1  UNL1        0.0795
     22 C          23.7662   74.2095    3.3673 C.ar    1  UNL1        0.2626
     23 H          23.1510   72.4424    4.1490 H       1  UNL1        0.1734
     24 O          21.3907   72.5845   -4.4272 O.3     1  UNL1       -0.2703
     25 P          21.3312   73.3535   -5.8478 P.3     1  UNL1        0.2208
     26 O          22.6551   72.8239   -6.6121 O.co2   1  UNL1       -0.4371
     27 O          21.2371   74.8476   -5.7353 O.2     1  UNL1       -0.5170
     28 O          20.1027   72.6633   -6.6348 O.3     1  UNL1       -0.2858
     29 O          19.1227   70.5646   -6.1329 O.3     1  UNL1       -0.3258
     30 O          18.4729   70.6382  -10.2101 O.3     1  UNL1       -0.3794
     31 O          16.2619   71.0087   -8.4150 O.3     1  UNL1       -0.3794
     32 O          20.9463   71.6776   -9.1231 O.3     1  UNL1       -0.3775
     33 C          18.5964   71.1985   -8.9000 C.3     1  UNL1        0.1715
     34 C          17.5446   70.5481   -7.9992 C.3     1  UNL1        0.1694
     35 C          20.0024   70.9236   -8.3701 C.3     1  UNL1        0.1967
     36 C          17.7857   70.8977   -6.5245 C.3     1  UNL1        0.1761
     37 C          20.1210   71.2598   -6.8825 C.3     1  UNL1        0.2704
     38 H          17.5825   70.8096  -10.5526 H       1  UNL1        0.2105
     39 H          16.1225   70.7821   -9.3479 H       1  UNL1        0.2105
     40 H          20.8613   71.4556  -10.0630 H       1  UNL1        0.2106
     41 O          16.0962   69.2154   -6.3685 O.3     1  UNL1       -0.3794
     42 C          16.8453   70.1342   -5.5946 C.3     1  UNL1        0.1693
     43 H          15.4934   68.7221   -5.7897 H       1  UNL1        0.2105
@<TRIPOS>UNITY_ATOM_ATTR
2 1
charge -1
26 1
charge -1
@<TRIPOS>BOND
     1    25    28    1
     2    25    24    1
     3    25    26    1
     4    25    27    2
     5     1     4    1
     6     1    24    1
     7     1     2    1
     8     1     3    2
     9     6    11    1
    10     6    12    1
    11    29    36    1
    12    29    37    1
    13     7     9    1
    14     7    13    1
    15     8    10    1
    16     8    14    1
    17    28    37    1
    18     4     5    1
    19    30    33    1
    20    30    38    1
    21    31    34    1
    22    31    39    1
    23    32    35    1
    24    32    40    1
    25    41    42    1
    26    41    43    1
    27    15    19    2
    28    16    22    2
    29    17    12    1
    30    17    19   ar
    31    17    20   ar
    32    18    19   ar
    33    18    22   ar
    34    18    23    1
    35     9    10    1
    36     9    11    1
    37    10    12    1
    38    11     5    1
    39    33    34    1
    40    33    35    1
    41    34    36    1
    42    35    37    1
    43    36    42    1
    44    20    21   ar
    45    21    22   ar
@<TRIPOS>MOLECULE
*****
 43 45 0 0 0
SMALL
GASTEIGER

@<TRIPOS>ATOM
      1 P          19.8763   70.6762   -3.3562 P.3     1  UNL1        0.2189
      2 O          20.1790   69.0946   -3.5116 O.co2   1  UNL1       -0.4371
      3 O          19.6124   71.1361   -1.9526 O.2     1  UNL1       -0.5170
      4 O          18.6890   70.9508   -4.4205 O.3     1  UNL1       -0.3112
      5 C          17.4557   71.4581   -3.9416 C.3     1  UNL1        0.1811
      6 O          18.2152   73.1814   -5.4340 O.3     1  UNL1       -0.3308
      7 O          15.8292   74.7562   -4.5297 O.3     1  UNL1       -0.3794
      8 O          15.0169   73.7795   -6.9427 O.3     1  UNL1       -0.3779
      9 C          15.9553   73.3510   -4.7411 C.3     1  UNL1        0.1713
     10 C          15.9849   73.0429   -6.2236 C.3     1  UNL1        0.1895
     11 C          17.3533   72.9340   -4.3016 C.3     1  UNL1        0.1764
     12 C          17.4070   73.4259   -6.5967 C.3     1  UNL1        0.2383
     13 H          14.9441   75.0460   -4.8029 H       1  UNL1        0.2105
     14 H          14.1292   73.4996   -6.6701 H       1  UNL1        0.2106
     15 O          18.1259   74.4865   -9.1139 O.2     1  UNL1       -0.2464
     16 O          19.3439   70.3409  -10.7174 O.2     1  UNL1       -0.2670
     17 N          17.9152   72.6465   -7.6901 N.ar    1  UNL1       -0.2551
     18 N          18.7320   72.4215   -9.9102 N.ar    1  UNL1       -0.2743
     19 C          18.2453   73.2762   -8.9129 C.ar    1  UNL1        0.3323
     20 C          18.0820   71.2737   -7.5439 C.ar    1  UNL1        0.0869
     21 C          18.5461   70.4725   -8.5052 C.ar    1  UNL1        0.0795
     22 C          18.9144   71.0511   -9.8135 C.ar    1  UNL1        0.2626
     23 H          18.9681   72.8379  -10.7708 H       1  UNL1        0.1734
     24 O          21.1600   71.3627   -4.0589 O.3     1  UNL1       -0.2703
     25 P          22.6137   71.7498   -3.4672 P.3     1  UNL1        0.2208
     26 O          23.1803   72.8167   -4.5433 O.co2   1  UNL1       -0.4371
     27 O          23.5144   70.5726   -3.2291 O.2     1  UNL1       -0.5170
     28 O          22.2980   72.6277   -2.1501 O.3     1  UNL1       -0.2858
     29 O          23.4620   73.8520   -0.4879 O.3     1  UNL1       -0.3258
     30 O          21.1759   71.4317    1.9548 O.3     1  UNL1       -0.3794
     31 O          20.5369   74.2221    1.7246 O.3     1  UNL1       -0.3794
     32 O          22.3009   70.3652   -0.4899 O.3     1  UNL1       -0.3775
     33 C          21.4554   72.2193    0.7942 C.3     1  UNL1        0.1715
     34 C          21.7512   73.6508    1.2460 C.3     1  UNL1        0.1694
     35 C          22.6599   71.6255    0.0662 C.3     1  UNL1        0.1967
     36 C          22.3183   74.4896    0.0928 C.3     1  UNL1        0.1761
     37 C          23.1754   72.5608   -1.0290 C.3     1  UNL1        0.2704
     38 H          20.4118   71.8031    2.4214 H       1  UNL1        0.2105
     39 H          20.1890   73.6827    2.4522 H       1  UNL1        0.2105
     40 H          21.9765   69.7822    0.2134 H       1  UNL1        0.2106
     41 O          21.9550   76.8453   -0.0726 O.3     1  UNL1       -0.3794
     42 C          22.7674   75.8728    0.5586 C.3     1  UNL1        0.1693
     43 H          22.2292   77.7308    0.2147 H       1  UNL1        0.2105
@<TRIPOS>UNITY_ATOM_ATTR
2 1
charge -1
26 1
charge -1
@<TRIPOS>BOND
     1    25    28    1
     2    25    24    1
     3    25    26    1
     4    25    27    2
     5     1     4    1
     6     1    24    1
     7     1     2    1
     8     1     3    2
     9     6    11    1
    10     6    12    1
    11    29    36    1
    12    29    37    1
    13     7     9    1
    14     7    13    1
    15     8    10    1
    16     8    14    1
    17    28    37    1
    18     4     5    1
    19    30    33    1
    20    30    38    1
    21    31    34    1
    22    31    39    1
    23    32    35    1
    24    32    40    1
    25    41    42    1
    26    41    43    1
    27    15    19    2
    28    16    22    2
    29    17    12    1
    30    17    19   ar
    31    17    20   ar
    32    18    19   ar
    33    18    22   ar
    34    18    23    1
    35     9    10    1
    36     9    11    1
    37    10    12    1
    38    11     5    1
    39    33    34    1
    40    33    35    1
    41    34    36    1
    42    35    37    1
    43    36    42    1
    44    20    21   ar
    45    21    22   ar
@<TRIPOS>MOLECULE
*****
 43 45 0 0 0
SMALL
GASTEIGER

@<TRIPOS>ATOM
      1 P          22.9519   72.1934   -3.0783 P.3     1  UNL1        0.2189
      2 O          23.5930   70.7165   -3.2365 O.co2   1  UNL1       -0.4371
      3 O          22.7697   72.6569   -1.6629 O.2     1  UNL1       -0.5170
      4 O          21.6072   72.1313   -3.9759 O.3     1  UNL1       -0.3112
      5 C          20.9270   70.8935   -4.0900 C.3     1  UNL1        0.1811
      6 O          18.8168   72.0417   -4.1405 O.3     1  UNL1       -0.3308
      7 O          17.7539   69.7706   -2.4964 O.3     1  UNL1       -0.3794
      8 O          16.8644   69.1587   -5.0006 O.3     1  UNL1       -0.3779
      9 C          18.7204   69.7499   -3.5456 C.3     1  UNL1        0.1713
     10 C          18.0431   69.9300   -4.8881 C.3     1  UNL1        0.1895
     11 C          19.5566   71.0190   -3.4384 C.3     1  UNL1        0.1764
     12 C          17.7679   71.4240   -4.9042 C.3     1  UNL1        0.2383
     13 H          17.2080   68.9696   -2.5441 H       1  UNL1        0.2105
     14 H          17.0920   68.2160   -4.9854 H       1  UNL1        0.2106
     15 O          15.8726   70.7896   -6.9000 O.2     1  UNL1       -0.2464
     16 O          17.8987   73.5707   -9.9662 O.2     1  UNL1       -0.2670
     17 N          17.7761   71.9681   -6.2329 N.ar    1  UNL1       -0.2551
     18 N          16.8829   72.1750   -8.4251 N.ar    1  UNL1       -0.2743
     19 C          16.7793   71.5834   -7.1597 C.ar    1  UNL1        0.3323
     20 C          18.7644   72.8727   -6.6052 C.ar    1  UNL1        0.0869
     21 C          18.8499   73.4269   -7.8163 C.ar    1  UNL1        0.0795
     22 C          17.8472   73.0783   -8.8434 C.ar    1  UNL1        0.2626
     23 H          16.1995   71.9217   -9.0873 H       1  UNL1        0.1734
     24 O          23.9392   73.1152   -3.9663 O.3     1  UNL1       -0.2703
     25 P          24.0789   74.7220   -4.0754 P.3     1  UNL1        0.2208
     26 O          25.6781   74.9601   -4.0179 O.co2   1  UNL1       -0.4371
     27 O          23.3023   75.4791   -3.0373 O.2     1  UNL1       -0.5170
     28 O          23.6702   75.0650   -5.5987 O.3     1  UNL1       -0.2858
     29 O          21.7460   76.1764   -6.4226 O.3     1  UNL1       -0.3258
     30 O          22.2923   73.4511   -9.4764 O.3     1  UNL1       -0.3794
     31 O          22.8953   76.2230   -9.9249 O.3     1  UNL1       -0.3794
     32 O          22.7710   72.6609   -6.7331 O.3     1  UNL1       -0.3775
     33 C          22.7043   74.3531   -8.4458 C.3     1  UNL1        0.1715
     34 C          22.1771   75.7475   -8.7899 C.3     1  UNL1        0.1694
     35 C          22.1358   73.8778   -7.1100 C.3     1  UNL1        0.1967
     36 C          22.3470   76.7113   -7.6078 C.3     1  UNL1        0.1761
     37 C          22.3135   74.9302   -6.0141 C.3     1  UNL1        0.2704
     38 H          22.6503   73.7469  -10.3272 H       1  UNL1        0.2105
     39 H          22.7801   75.6052  -10.6640 H       1  UNL1        0.2105
     40 H          22.6511   72.0029   -7.4348 H       1  UNL1        0.2106
     41 O          22.0242   78.9421   -6.8154 O.3     1  UNL1       -0.3794
     42 C          21.6864   78.0625   -7.8720 C.3     1  UNL1        0.1693
     43 H          21.6109   79.8064   -6.9703 H       1  UNL1        0.2105
@<TRIPOS>UNITY_ATOM_ATTR
2 1
charge -1
26 1
charge -1
@<TRIPOS>BOND
     1    25    28    1
     2    25    24    1
     3    25    26    1
     4    25    27    2
     5     1     4    1
     6     1    24    1
     7     1     2    1
     8     1     3    2
     9     6    11    1
    10     6    12    1
    11    29    36    1
    12    29    37    1
    13     7     9    1
    14     7    13    1
    15     8    10    1
    16     8    14    1
    17    28    37    1
    18     4     5    1
    19    30    33    1
    20    30    38    1
    21    31    34    1
    22    31    39    1
    23    32    35    1
    24    32    40    1
    25    41    42    1
    26    41    43    1
    27    15    19    2
    28    16    22    2
    29    17    12    1
    30    17    19   ar
    31    17    20   ar
    32    18    19   ar
    33    18    22   ar
    34    18    23    1
    35     9    10    1
    36     9    11    1
    37    10    12    1
    38    11     5    1
    39    33    34    1
    40    33    35    1
    41    34    36    1
    42    35    37    1
    43    36    42    1
    44    20    21   ar
    45    21    22   ar
@<TRIPOS>MOLECULE
*****
 43 45 0 0 0
SMALL
GASTEIGER

@<TRIPOS>ATOM
      1 P          22.4087   72.9457   -4.9169 P.3     1  UNL1        0.2189
      2 O          21.3875   74.1867   -4.7311 O.co2   1  UNL1       -0.4371
      3 O          23.7856   73.1697   -4.3643 O.2     1  UNL1       -0.5170
      4 O          22.3320   72.6131   -6.4985 O.3     1  UNL1       -0.3112
      5 C          21.3317   73.2486   -7.2753 C.3     1  UNL1        0.1811
      6 O          20.0226   71.2337   -7.2803 O.3     1  UNL1       -0.3308
      7 O          19.3299   71.9131  -10.1175 O.3     1  UNL1       -0.3794
      8 O          17.1055   72.7092   -8.7555 O.3     1  UNL1       -0.3779
      9 C          19.5231   72.7825   -9.0029 C.3     1  UNL1        0.1713
     10 C          18.3376   72.7047   -8.0637 C.3     1  UNL1        0.1895
     11 C          20.6449   72.2068   -8.1476 C.3     1  UNL1        0.1764
     12 C          18.5959   71.3951   -7.3381 C.3     1  UNL1        0.2383
     13 H          18.6183   72.2603  -10.6786 H       1  UNL1        0.2105
     14 H          16.9874   73.5629   -9.2004 H       1  UNL1        0.2106
     15 O          16.7004   69.5415   -6.3639 O.2     1  UNL1       -0.2464
     16 O          16.6576   71.5000   -2.1921 O.2     1  UNL1       -0.2670
     17 N          18.0723   71.3971   -6.0013 N.ar    1  UNL1       -0.2551
     18 N          16.6807   70.5181   -4.2874 N.ar    1  UNL1       -0.2743
     19 C          17.1233   70.4229   -5.6130 C.ar    1  UNL1        0.3323
     20 C          18.5002   72.3574   -5.0909 C.ar    1  UNL1        0.0869
     21 C          18.0674   72.4353   -3.8308 C.ar    1  UNL1        0.0795
     22 C          17.0750   71.4548   -3.3452 C.ar    1  UNL1        0.2626
     23 H          16.0191   69.8500   -3.9947 H       1  UNL1        0.1734
     24 O          21.6074   71.7120   -4.2469 O.3     1  UNL1       -0.2703
     25 P          21.9558   70.7909   -2.9651 P.3     1  UNL1        0.2208
     26 O          23.5435   70.5221   -3.1219 O.co2   1  UNL1       -0.4371
     27 O          21.1244   69.5454   -2.8581 O.2     1  UNL1       -0.5170
     28 O          21.8340   71.7871   -1.7010 O.3     1  UNL1       -0.2858
     29 O          23.4322   72.9824   -0.4230 O.3     1  UNL1       -0.3258
     30 O          20.9616   71.7116    2.6318 O.3     1  UNL1       -0.3794
     31 O          20.9482   74.4763    1.8544 O.3     1  UNL1       -0.3794
     32 O          21.5201   69.9540    0.4005 O.3     1  UNL1       -0.3775
     33 C          21.2735   72.1693    1.3132 C.3     1  UNL1        0.1715
     34 C          21.9367   73.5433    1.4269 C.3     1  UNL1        0.1694
     35 C          22.2180   71.1698    0.6482 C.3     1  UNL1        0.1967
     36 C          22.5391   73.9805    0.0849 C.3     1  UNL1        0.1761
     37 C          22.7992   71.7224   -0.6544 C.3     1  UNL1        0.2704
     38 H          20.3617   72.3416    3.0594 H       1  UNL1        0.2105
     39 H          20.5755   74.1884    2.7026 H       1  UNL1        0.2105
     40 H          21.1572   69.6142    1.2328 H       1  UNL1        0.2106
     41 O          24.6550   75.0358   -0.2588 O.3     1  UNL1       -0.3794
     42 C          23.3413   75.2737    0.2122 C.3     1  UNL1        0.1693
     43 H          25.1771   75.8504   -0.1841 H       1  UNL1        0.2105
@<TRIPOS>UNITY_ATOM_ATTR
2 1
charge -1
26 1
charge -1
@<TRIPOS>BOND
     1    25    28    1
     2    25    24    1
     3    25    26    1
     4    25    27    2
     5     1     4    1
     6     1    24    1
     7     1     2    1
     8     1     3    2
     9     6    11    1
    10     6    12    1
    11    29    36    1
    12    29    37    1
    13     7     9    1
    14     7    13    1
    15     8    10    1
    16     8    14    1
    17    28    37    1
    18     4     5    1
    19    30    33    1
    20    30    38    1
    21    31    34    1
    22    31    39    1
    23    32    35    1
    24    32    40    1
    25    41    42    1
    26    41    43    1
    27    15    19    2
    28    16    22    2
    29    17    12    1
    30    17    19   ar
    31    17    20   ar
    32    18    19   ar
    33    18    22   ar
    34    18    23    1
    35     9    10    1
    36     9    11    1
    37    10    12    1
    38    11     5    1
    39    33    34    1
    40    33    35    1
    41    34    36    1
    42    35    37    1
    43    36    42    1
    44    20    21   ar
    45    21    22   ar
@<TRIPOS>MOLECULE
*****
 43 45 0 0 0
SMALL
GASTEIGER

@<TRIPOS>ATOM
      1 P          21.4940   74.0692   -6.4281 P.3     1  UNL1        0.2189
      2 O          21.8716   72.7917   -7.3463 O.co2   1  UNL1       -0.4371
      3 O          21.7498   75.4041   -7.0636 O.2     1  UNL1       -0.5170
      4 O          22.2735   73.7920   -5.0376 O.3     1  UNL1       -0.3112
      5 C          21.5460   73.2432   -3.9525 C.3     1  UNL1        0.1811
      6 O          22.6304   71.4434   -2.7869 O.3     1  UNL1       -0.3308
      7 O          20.7061   69.6230   -4.1918 O.3     1  UNL1       -0.3794
      8 O          19.6061   69.8468   -1.7066 O.3     1  UNL1       -0.3779
      9 C          20.4966   70.9407   -3.6869 C.3     1  UNL1        0.1713
     10 C          20.4023   70.9159   -2.1755 C.3     1  UNL1        0.1895
     11 C          21.7749   71.7385   -3.9127 C.3     1  UNL1        0.1764
     12 C          21.8604   70.7802   -1.7710 C.3     1  UNL1        0.2383
     13 H          19.9029   69.0946   -4.0591 H       1  UNL1        0.2105
     14 H          18.6879   69.9790   -1.9895 H       1  UNL1        0.2106
     15 O          21.7563   69.4319    0.7088 O.2     1  UNL1       -0.2464
     16 O          22.9361   73.2331    3.0326 O.2     1  UNL1       -0.2670
     17 N          22.1361   71.3931   -0.5023 N.ar    1  UNL1       -0.2551
     18 N          22.3441   71.3257    1.8638 N.ar    1  UNL1       -0.2743
     19 C          22.0549   70.6277    0.6843 C.ar    1  UNL1        0.3323
     20 C          22.4829   72.7385   -0.4434 C.ar    1  UNL1        0.0869
     21 C          22.7543   73.3896    0.6896 C.ar    1  UNL1        0.0795
     22 C          22.6921   72.6626    1.9739 C.ar    1  UNL1        0.2626
     23 H          22.2935   70.8129    2.7030 H       1  UNL1        0.1734
     24 O          19.9492   73.7938   -6.0399 O.3     1  UNL1       -0.2703
     25 P          18.6440   74.7419   -6.1413 P.3     1  UNL1        0.2208
     26 O          19.1154   76.1024   -5.4034 O.co2   1  UNL1       -0.4371
     27 O          17.3945   74.1315   -5.5754 O.2     1  UNL1       -0.5170
     28 O          18.5469   75.1377   -7.7030 O.3     1  UNL1       -0.2858
     29 O          18.2704   73.5799   -9.4674 O.3     1  UNL1       -0.3258
     30 O          16.0375   71.6838   -6.5572 O.3     1  UNL1       -0.3794
     31 O          18.5933   70.6101   -7.3076 O.3     1  UNL1       -0.3794
     32 O          15.9553   74.5680   -6.7898 O.3     1  UNL1       -0.3775
     33 C          17.1161   72.4753   -7.0626 C.3     1  UNL1        0.1715
     34 C          17.9164   71.6217   -8.0484 C.3     1  UNL1        0.1694
     35 C          16.5460   73.7093   -7.7594 C.3     1  UNL1        0.1967
     36 C          18.9236   72.4759   -8.8301 C.3     1  UNL1        0.1761
     37 C          17.6207   74.4598   -8.5479 C.3     1  UNL1        0.2704
     38 H          16.3927   70.8989   -6.1131 H       1  UNL1        0.2105
     39 H          17.9461   70.0783   -6.8182 H       1  UNL1        0.2105
     40 H          15.2765   74.0813   -6.2977 H       1  UNL1        0.2106
     41 O          18.7479   70.6485  -10.3594 O.3     1  UNL1       -0.3794
     42 C          19.6212   71.6760   -9.9281 C.3     1  UNL1        0.1693
     43 H          19.1786   70.1313  -11.0585 H       1  UNL1        0.2105
@<TRIPOS>UNITY_ATOM_ATTR
2 1
charge -1
26 1
charge -1
@<TRIPOS>BOND
     1    25    28    1
     2    25    24    1
     3    25    26    1
     4    25    27    2
     5     1     4    1
     6     1    24    1
     7     1     2    1
     8     1     3    2
     9     6    11    1
    10     6    12    1
    11    29    36    1
    12    29    37    1
    13     7     9    1
    14     7    13    1
    15     8    10    1
    16     8    14    1
    17    28    37    1
    18     4     5    1
    19    30    33    1
    20    30    38    1
    21    31    34    1
    22    31    39    1
    23    32    35    1
    24    32    40    1
    25    41    42    1
    26    41    43    1
    27    15    19    2
    28    16    22    2
    29    17    12    1
    30    17    19   ar
    31    17    20   ar
    32    18    19   ar
    33    18    22   ar
    34    18    23    1
    35     9    10    1
    36     9    11    1
    37    10    12    1
    38    11     5    1
    39    33    34    1
    40    33    35    1
    41    34    36    1
    42    35    37    1
    43    36    42    1
    44    20    21   ar
    45    21    22   ar
@<TRIPOS>MOLECULE
*****
 43 45 0 0 0
SMALL
GASTEIGER

@<TRIPOS>ATOM
      1 P          22.5603   72.9912   -4.6448 P.3     1  UNL1        0.2189
      2 O          21.7050   74.3400   -4.3871 O.co2   1  UNL1       -0.4371
      3 O          23.9545   73.0092   -4.0904 O.2     1  UNL1       -0.5170
      4 O          22.4420   72.7552   -6.2411 O.3     1  UNL1       -0.3112
      5 C          21.2126   73.0538   -6.8794 C.3     1  UNL1        0.1811
      6 O          19.0698   71.9666   -6.8628 O.3     1  UNL1       -0.3308
      7 O          20.3061   69.9144   -8.6658 O.3     1  UNL1       -0.3794
      8 O          18.8977   71.4670  -10.4102 O.3     1  UNL1       -0.3779
      9 C          20.5303   71.3224   -8.6143 C.3     1  UNL1        0.1713
     10 C          19.3540   72.0645   -9.2136 C.3     1  UNL1        0.1895
     11 C          20.4684   71.7543   -7.1545 C.3     1  UNL1        0.1764
     12 C          18.3296   71.9877   -8.0943 C.3     1  UNL1        0.2383
     13 H          20.3413   69.6152   -9.5884 H       1  UNL1        0.2105
     14 H          19.5844   71.5415  -11.0912 H       1  UNL1        0.2106
     15 O          19.0961   74.6254   -8.7524 O.2     1  UNL1       -0.2464
     16 O          14.8406   76.2388   -8.0253 O.2     1  UNL1       -0.2670
     17 N          17.4422   73.1164   -8.0857 N.ar    1  UNL1       -0.2551
     18 N          16.9765   75.4266   -8.3900 N.ar    1  UNL1       -0.2743
     19 C          17.9276   74.3990   -8.4315 C.ar    1  UNL1        0.3323
     20 C          16.1068   72.9453   -7.7374 C.ar    1  UNL1        0.0869
     21 C          15.2129   73.9357   -7.7014 C.ar    1  UNL1        0.0795
     22 C          15.6386   75.3068   -8.0490 C.ar    1  UNL1        0.2626
     23 H          17.2920   76.3289   -8.6267 H       1  UNL1        0.1734
     24 O          21.6088   71.8354   -4.0351 O.3     1  UNL1       -0.2703
     25 P          21.9123   70.6693   -2.9576 P.3     1  UNL1        0.2208
     26 O          23.5196   70.5017   -3.0350 O.co2   1  UNL1       -0.4371
     27 O          21.1453   69.4002   -3.1918 O.2     1  UNL1       -0.5170
     28 O          21.6429   71.3585   -1.5232 O.3     1  UNL1       -0.2858
     29 O          23.2534   72.7991   -0.5496 O.3     1  UNL1       -0.3258
     30 O          21.2139   71.6865    2.8641 O.3     1  UNL1       -0.3794
     31 O          20.8902   74.3428    1.8213 O.3     1  UNL1       -0.3794
     32 O          21.6948   69.7446    0.7720 O.3     1  UNL1       -0.3775
     33 C          21.3538   72.0211    1.4807 C.3     1  UNL1        0.1715
     34 C          21.9067   73.4445    1.3852 C.3     1  UNL1        0.1694
     35 C          22.3087   71.0280    0.8210 C.3     1  UNL1        0.1967
     36 C          22.3340   73.7776   -0.0507 C.3     1  UNL1        0.1761
     37 C          22.7091   71.4783   -0.5850 C.3     1  UNL1        0.2704
     38 H          20.6084   72.3130    3.2888 H       1  UNL1        0.2105
     39 H          20.6290   74.1213    2.7290 H       1  UNL1        0.2105
     40 H          21.4463   69.4707    1.6681 H       1  UNL1        0.2106
     41 O          24.2450   75.0616    0.5881 O.3     1  UNL1       -0.3794
     42 C          23.0327   75.1325   -0.1397 C.3     1  UNL1        0.1693
     43 H          24.7008   75.9170    0.5400 H       1  UNL1        0.2105
@<TRIPOS>UNITY_ATOM_ATTR
2 1
charge -1
26 1
charge -1
@<TRIPOS>BOND
     1    25    28    1
     2    25    24    1
     3    25    26    1
     4    25    27    2
     5     1     4    1
     6     1    24    1
     7     1     2    1
     8     1     3    2
     9     6    11    1
    10     6    12    1
    11    29    36    1
    12    29    37    1
    13     7     9    1
    14     7    13    1
    15     8    10    1
    16     8    14    1
    17    28    37    1
    18     4     5    1
    19    30    33    1
    20    30    38    1
    21    31    34    1
    22    31    39    1
    23    32    35    1
    24    32    40    1
    25    41    42    1
    26    41    43    1
    27    15    19    2
    28    16    22    2
    29    17    12    1
    30    17    19   ar
    31    17    20   ar
    32    18    19   ar
    33    18    22   ar
    34    18    23    1
    35     9    10    1
    36     9    11    1
    37    10    12    1
    38    11     5    1
    39    33    34    1
    40    33    35    1
    41    34    36    1
    42    35    37    1
    43    36    42    1
    44    20    21   ar
    45    21    22   ar
