@<TRIPOS>MOLECULE
GDU
 43 45 0 0 0
SMALL
GASTEIGER

@<TRIPOS>ATOM
      1 P          20.6891   71.9914   -1.8608 P.3     1  UNL1        0.2189
      2 O          21.5129   70.8307   -2.2654 O.2     1  UNL1       -0.5170
      3 O          20.7222   73.1044   -3.0240 O.3     1  UNL1       -0.4371
      4 O          19.1724   71.5146   -1.6174 O.3     1  UNL1       -0.3112
      5 C          18.9711   70.3497   -2.4192 C.3     1  UNL1        0.1811
      6 C          17.1903   70.4747   -5.5402 C.3     1  UNL1        0.2383
      7 C          17.0232   69.0119   -5.0552 C.3     1  UNL1        0.1895
      8 O          15.7789   68.4663   -5.4994 O.3     1  UNL1       -0.3779
      9 C          17.0354   69.1775   -3.5132 C.3     1  UNL1        0.1713
     10 C          17.7258   70.5355   -3.2881 C.3     1  UNL1        0.1764
     11 O          18.1024   71.0463   -4.5786 O.3     1  UNL1       -0.3308
     12 O          15.7011   69.1962   -3.0022 O.3     1  UNL1       -0.3794
     13 H          15.7373   67.5591   -5.1662 H       1  UNL1        0.2106
     14 H          15.3036   68.3437   -3.2255 H       1  UNL1        0.2105
     15 N          17.7681   70.5118   -6.8846 N.ar    1  UNL1       -0.2551
     16 C          16.9620   70.4466   -7.9590 C.ar    1  UNL1        0.3323
     17 N          17.4676   70.4823   -9.2060 N.ar    1  UNL1       -0.2743
     18 C          18.7975   70.5745   -9.3982 C.ar    1  UNL1        0.2626
     19 C          19.6592   70.6381   -8.2758 C.ar    1  UNL1        0.0795
     20 C          19.1255   70.6047   -7.0363 C.ar    1  UNL1        0.0869
     21 O          15.7602   70.3638   -7.8014 O.2     1  UNL1       -0.2464
     22 O          19.2564   70.6021  -10.5265 O.2     1  UNL1       -0.2670
     23 H          16.8707   70.4386   -9.9699 H       1  UNL1        0.1734
     24 O          21.2801   72.6201   -0.5015 O.3     1  UNL1       -0.2703
     25 P          22.0588   71.4355    0.2605 P.3     1  UNL1        0.2208
     26 O          21.1285   70.3113    0.5049 O.2     1  UNL1       -0.5170
     27 O          23.2860   70.9275   -0.6505 O.3     1  UNL1       -0.4371
     28 O          22.6245   71.9804    1.6652 O.3     1  UNL1       -0.2858
     29 C          22.3677   73.3849    1.6992 C.3     1  UNL1        0.2704
     30 C          23.6560   74.1459    1.3821 C.3     1  UNL1        0.1967
     31 C          24.7254   73.7664    2.4111 C.3     1  UNL1        0.1715
     32 C          24.1586   74.0005    3.8159 C.3     1  UNL1        0.1694
     33 C          22.8321   73.2484    3.9492 C.3     1  UNL1        0.1761
     34 O          24.1065   73.7990    0.0714 O.3     1  UNL1       -0.3775
     35 O          25.8865   74.5770    2.2180 O.3     1  UNL1       -0.3794
     36 O          23.9433   75.3980    4.0175 O.3     1  UNL1       -0.3794
     37 O          21.8969   73.7489    2.9948 O.3     1  UNL1       -0.3258
     38 H          23.4010   74.0482   -0.5411 H       1  UNL1        0.2106
     39 H          26.2006   74.4069    1.3210 H       1  UNL1        0.2105
     40 H          24.8015   75.8305    3.9189 H       1  UNL1        0.2105
     41 C          22.2743   73.4475    5.3603 C.3     1  UNL1        0.1693
     42 O          20.8960   73.8146    5.2793 O.3     1  UNL1       -0.3794
     43 H          20.5832   73.9296    6.1872 H       1  UNL1        0.2105
@<TRIPOS>BOND
     1    15    16   ar
     2    15    20   ar
     3    15     6    1
     4    16    17   ar
     5    16    21    2
     6    17    18   ar
     7    17    23    1
     8    18    19   ar
     9    18    22    2
    10    19    20   ar
    11     6     7    1
    12     6    11    1
    13     7     8    1
    14     7     9    1
    15     8    13    1
    16     9    10    1
    17     9    12    1
    18    10    11    1
    19    10     5    1
    20    12    14    1
    21     5     4    1
    22     4     1    1
    23     1     2    2
    24     1     3    1
    25     1    24    1
    26    24    25    1
    27    25    26    2
    28    25    27    1
    29    25    28    1
    30    28    29    1
    31    29    30    1
    32    29    37    1
    33    30    31    1
    34    30    34    1
    35    31    32    1
    36    31    35    1
    37    32    33    1
    38    32    36    1
    39    33    41    1
    40    33    37    1
    41    41    42    1
    42    34    38    1
    43    35    39    1
    44    36    40    1
    45    42    43    1
@<TRIPOS>MOLECULE
GDU
 43 45 0 0 0
SMALL
GASTEIGER

@<TRIPOS>ATOM
      1 P          20.5319   71.3157   -1.7363 P.3     1  UNL1        0.2189
      2 O          20.4707   72.7749   -1.4991 O.2     1  UNL1       -0.5170
      3 O          21.1916   70.5915   -0.4582 O.3     1  UNL1       -0.4371
      4 O          19.0456   70.7464   -1.9679 O.3     1  UNL1       -0.3112
      5 C          18.2710   71.8188   -2.5067 C.3     1  UNL1        0.1811
      6 C          16.9690   70.5356   -5.6027 C.3     1  UNL1        0.2383
      7 C          17.4102   69.2760   -4.8143 C.3     1  UNL1        0.1895
      8 O          16.5892   68.1537   -5.1454 O.3     1  UNL1       -0.3779
      9 C          17.1800   69.7153   -3.3449 C.3     1  UNL1        0.1713
     10 C          17.1740   71.2538   -3.4108 C.3     1  UNL1        0.1764
     11 O          17.4260   71.6274   -4.7765 O.3     1  UNL1       -0.3308
     12 O          15.9264   69.2234   -2.8669 O.3     1  UNL1       -0.3794
     13 H          16.9146   67.4066   -4.6240 H       1  UNL1        0.2106
     14 H          15.9712   68.2584   -2.9052 H       1  UNL1        0.2105
     15 N          17.6147   70.5772   -6.9158 N.ar    1  UNL1       -0.2551
     16 C          16.8670   70.4846   -8.0297 C.ar    1  UNL1        0.3323
     17 N          17.4354   70.5238   -9.2493 N.ar    1  UNL1       -0.2743
     18 C          18.7709   70.6472   -9.3734 C.ar    1  UNL1        0.2626
     19 C          19.5716   70.7400   -8.2087 C.ar    1  UNL1        0.0795
     20 C          18.9754   70.7024   -6.9981 C.ar    1  UNL1        0.0869
     21 O          15.6610   70.3734   -7.9336 O.2     1  UNL1       -0.2464
     22 O          19.2868   70.6779  -10.4768 O.2     1  UNL1       -0.2670
     23 H          16.8801   70.4598  -10.0426 H       1  UNL1        0.1734
     24 O          21.4296   71.0222   -3.0403 O.3     1  UNL1       -0.2703
     25 P          22.6711   72.0451   -2.9920 P.3     1  UNL1        0.2208
     26 O          22.7496   72.6622   -1.6496 O.2     1  UNL1       -0.5170
     27 O          24.0364   71.2462   -3.2955 O.3     1  UNL1       -0.4371
     28 O          22.4651   73.1935   -4.1005 O.3     1  UNL1       -0.2858
     29 C          21.4920   72.7072   -5.0259 C.3     1  UNL1        0.2704
     30 C          21.9809   72.9517   -6.4543 C.3     1  UNL1        0.1967
     31 C          22.2125   74.4529   -6.6520 C.3     1  UNL1        0.1715
     32 C          20.9325   75.2015   -6.2636 C.3     1  UNL1        0.1694
     33 C          20.5240   74.7875   -4.8477 C.3     1  UNL1        0.1761
     34 O          23.2038   72.2449   -6.6692 O.3     1  UNL1       -0.3775
     35 O          22.5275   74.7140   -8.0214 O.3     1  UNL1       -0.3794
     36 O          19.8895   74.8731   -7.1824 O.3     1  UNL1       -0.3794
     37 O          20.2564   73.3864   -4.8142 O.3     1  UNL1       -0.3258
     38 H          23.0129   71.3077   -6.5275 H       1  UNL1        0.2106
     39 H          23.3292   74.2155   -8.2241 H       1  UNL1        0.2105
     40 H          20.1922   75.1455   -8.0584 H       1  UNL1        0.2105
     41 C          19.2655   75.5553   -4.4368 C.3     1  UNL1        0.1693
     42 O          19.6136   76.9044   -4.1209 O.3     1  UNL1       -0.3794
     43 H          18.7948   77.3529   -3.8684 H       1  UNL1        0.2105
@<TRIPOS>BOND
     1    15    16   ar
     2    15    20   ar
     3    15     6    1
     4    16    17   ar
     5    16    21    2
     6    17    18   ar
     7    17    23    1
     8    18    19   ar
     9    18    22    2
    10    19    20   ar
    11     6     7    1
    12     6    11    1
    13     7     8    1
    14     7     9    1
    15     8    13    1
    16     9    10    1
    17     9    12    1
    18    10    11    1
    19    10     5    1
    20    12    14    1
    21     5     4    1
    22     4     1    1
    23     1     2    2
    24     1     3    1
    25     1    24    1
    26    24    25    1
    27    25    26    2
    28    25    27    1
    29    25    28    1
    30    28    29    1
    31    29    30    1
    32    29    37    1
    33    30    31    1
    34    30    34    1
    35    31    32    1
    36    31    35    1
    37    32    33    1
    38    32    36    1
    39    33    41    1
    40    33    37    1
    41    41    42    1
    42    34    38    1
    43    35    39    1
    44    36    40    1
    45    42    43    1
@<TRIPOS>MOLECULE
GDU
 43 45 0 0 0
SMALL
GASTEIGER

@<TRIPOS>ATOM
      1 P          20.5597   71.3266   -3.0566 P.3     1  UNL1        0.2189
      2 O          20.7260   71.8195   -4.4419 O.2     1  UNL1       -0.5170
      3 O          20.3462   72.5768   -2.0644 O.3     1  UNL1       -0.4371
      4 O          19.2786   70.3571   -2.9817 O.3     1  UNL1       -0.3112
      5 C          18.1713   71.1650   -2.5794 C.3     1  UNL1        0.1811
      6 C          16.7697   70.5508   -5.8329 C.3     1  UNL1        0.2383
      7 C          16.8277   69.1535   -5.1642 C.3     1  UNL1        0.1895
      8 O          15.7686   68.3178   -5.6364 O.3     1  UNL1       -0.3779
      9 C          16.6311   69.5021   -3.6658 C.3     1  UNL1        0.1713
     10 C          17.0216   70.9888   -3.5731 C.3     1  UNL1        0.1764
     11 O          17.4406   71.4067   -4.8838 O.3     1  UNL1       -0.3308
     12 O          15.2676   69.3113   -3.2832 O.3     1  UNL1       -0.3794
     13 H          15.8613   67.4677   -5.1841 H       1  UNL1        0.2106
     14 H          15.0669   68.3753   -3.4192 H       1  UNL1        0.2105
     15 N          17.4807   70.5425   -7.1125 N.ar    1  UNL1       -0.2551
     16 C          16.7839   70.5408   -8.2626 C.ar    1  UNL1        0.3323
     17 N          17.4133   70.5368   -9.4524 N.ar    1  UNL1       -0.2743
     18 C          18.7589   70.5244   -9.5098 C.ar    1  UNL1        0.2626
     19 C          19.5060   70.5203   -8.3064 C.ar    1  UNL1        0.0795
     20 C          18.8496   70.5288   -7.1268 C.ar    1  UNL1        0.0869
     21 O          15.5696   70.5524   -8.2267 O.2     1  UNL1       -0.2464
     22 O          19.3295   70.5160  -10.5864 O.2     1  UNL1       -0.2670
     23 H          16.8945   70.5400  -10.2726 H       1  UNL1        0.1734
     24 O          21.8770   70.5124   -2.6160 O.3     1  UNL1       -0.2703
     25 P          23.0335   71.6011   -2.3564 P.3     1  UNL1        0.2208
     26 O          24.3551   70.9869   -2.6113 O.2     1  UNL1       -0.5170
     27 O          22.8239   72.8530   -3.3478 O.3     1  UNL1       -0.4371
     28 O          22.9617   72.1085   -0.8308 O.3     1  UNL1       -0.2858
     29 C          23.1618   70.9624   -0.0024 C.3     1  UNL1        0.2704
     30 C          21.9575   70.7871    0.9240 C.3     1  UNL1        0.1967
     31 C          21.7967   72.0494    1.7768 C.3     1  UNL1        0.1715
     32 C          23.1266   72.3364    2.4830 C.3     1  UNL1        0.1694
     33 C          24.2427   72.3961    1.4372 C.3     1  UNL1        0.1761
     34 O          20.7788   70.5819    0.1431 O.3     1  UNL1       -0.3775
     35 O          20.7688   71.8446    2.7484 O.3     1  UNL1       -0.3794
     36 O          23.4019   71.2977    3.4238 O.3     1  UNL1       -0.3794
     37 O          24.3463   71.1384    0.7713 O.3     1  UNL1       -0.3258
     38 H          20.9273   69.7834   -0.3815 H       1  UNL1        0.2106
     39 H          19.9568   71.6562    2.2613 H       1  UNL1        0.2105
     40 H          22.6726   71.2934    4.0574 H       1  UNL1        0.2105
     41 C          25.5701   72.7164    2.1281 C.3     1  UNL1        0.1693
     42 O          25.3383   73.6261    3.2050 O.3     1  UNL1       -0.3794
     43 H          26.1973   73.8011    3.6134 H       1  UNL1        0.2105
@<TRIPOS>BOND
     1    15    16   ar
     2    15    20   ar
     3    15     6    1
     4    16    17   ar
     5    16    21    2
     6    17    18   ar
     7    17    23    1
     8    18    19   ar
     9    18    22    2
    10    19    20   ar
    11     6     7    1
    12     6    11    1
    13     7     8    1
    14     7     9    1
    15     8    13    1
    16     9    10    1
    17     9    12    1
    18    10    11    1
    19    10     5    1
    20    12    14    1
    21     5     4    1
    22     4     1    1
    23     1     2    2
    24     1     3    1
    25     1    24    1
    26    24    25    1
    27    25    26    2
    28    25    27    1
    29    25    28    1
    30    28    29    1
    31    29    30    1
    32    29    37    1
    33    30    31    1
    34    30    34    1
    35    31    32    1
    36    31    35    1
    37    32    33    1
    38    32    36    1
    39    33    41    1
    40    33    37    1
    41    41    42    1
    42    34    38    1
    43    35    39    1
    44    36    40    1
    45    42    43    1
@<TRIPOS>MOLECULE
GDU
 43 45 0 0 0
SMALL
GASTEIGER

@<TRIPOS>ATOM
      1 P          20.6376   71.3301   -2.6031 P.3     1  UNL1        0.2189
      2 O          21.7364   70.3391   -2.6111 O.2     1  UNL1       -0.5170
      3 O          20.6226   72.1261   -4.0028 O.3     1  UNL1       -0.4371
      4 O          19.2330   70.5730   -2.4013 O.3     1  UNL1       -0.3112
      5 C          18.2190   71.5790   -2.3864 C.3     1  UNL1        0.1811
      6 C          16.8606   70.6217   -5.5748 C.3     1  UNL1        0.2383
      7 C          17.1588   69.2790   -4.8599 C.3     1  UNL1        0.1895
      8 O          16.2379   68.2664   -5.2720 O.3     1  UNL1       -0.3779
      9 C          16.9429   69.6495   -3.3695 C.3     1  UNL1        0.1713
     10 C          17.0903   71.1821   -3.3397 C.3     1  UNL1        0.1764
     11 O          17.4062   71.6104   -4.6758 O.3     1  UNL1       -0.3308
     12 O          15.6372   69.2574   -2.9412 O.3     1  UNL1       -0.3794
     13 H          16.4770   67.4604   -4.7933 H       1  UNL1        0.2106
     14 H          15.5872   68.2968   -3.0387 H       1  UNL1        0.2105
     15 N          17.5341   70.6778   -6.8733 N.ar    1  UNL1       -0.2551
     16 C          16.8366   70.4359   -7.9973 C.ar    1  UNL1        0.3323
     17 N          17.4311   70.4846   -9.2040 N.ar    1  UNL1       -0.2743
     18 C          18.7439   70.7684   -9.3043 C.ar    1  UNL1        0.2626
     19 C          19.4925   71.0198   -8.1284 C.ar    1  UNL1        0.0795
     20 C          18.8706   70.9687   -6.9313 C.ar    1  UNL1        0.0869
     21 O          15.6515   70.1790   -7.9227 O.2     1  UNL1       -0.2464
     22 O          19.2840   70.8081  -10.3957 O.2     1  UNL1       -0.2670
     23 H          16.9114   70.3115  -10.0051 H       1  UNL1        0.1734
     24 O          20.8650   72.3723   -1.3971 O.3     1  UNL1       -0.2703
     25 P          21.7165   71.6023   -0.2692 P.3     1  UNL1        0.2208
     26 O          20.9294   70.4622    0.2501 O.2     1  UNL1       -0.5170
     27 O          23.0892   71.0577   -0.9120 O.3     1  UNL1       -0.4371
     28 O          22.0540   72.6154    0.9349 O.3     1  UNL1       -0.2858
     29 C          23.4742   72.6225    1.0854 C.3     1  UNL1        0.2704
     30 C          23.8300   72.4840    2.5665 C.3     1  UNL1        0.1967
     31 C          23.1981   73.6443    3.3416 C.3     1  UNL1        0.1715
     32 C          23.6285   74.9623    2.6879 C.3     1  UNL1        0.1694
     33 C          23.2859   74.9135    1.1968 C.3     1  UNL1        0.1761
     34 O          23.3274   71.2432    3.0654 O.3     1  UNL1       -0.3775
     35 O          23.6414   73.6121    4.6999 O.3     1  UNL1       -0.3794
     36 O          25.0358   75.1410    2.8542 O.3     1  UNL1       -0.3794
     37 O          23.9985   73.8457    0.5740 O.3     1  UNL1       -0.3258
     38 H          23.7454   70.5435    2.5453 H       1  UNL1        0.2106
     39 H          23.3603   72.7640    5.0660 H       1  UNL1        0.2105
     40 H          25.2051   75.1599    3.8051 H       1  UNL1        0.2105
     41 C          23.6805   76.2387    0.5410 C.3     1  UNL1        0.1693
     42 O          22.5108   76.8878    0.0394 O.3     1  UNL1       -0.3794
     43 H          22.8022   77.7169   -0.3642 H       1  UNL1        0.2105
@<TRIPOS>BOND
     1    15    16   ar
     2    15    20   ar
     3    15     6    1
     4    16    17   ar
     5    16    21    2
     6    17    18   ar
     7    17    23    1
     8    18    19   ar
     9    18    22    2
    10    19    20   ar
    11     6     7    1
    12     6    11    1
    13     7     8    1
    14     7     9    1
    15     8    13    1
    16     9    10    1
    17     9    12    1
    18    10    11    1
    19    10     5    1
    20    12    14    1
    21     5     4    1
    22     4     1    1
    23     1     2    2
    24     1     3    1
    25     1    24    1
    26    24    25    1
    27    25    26    2
    28    25    27    1
    29    25    28    1
    30    28    29    1
    31    29    30    1
    32    29    37    1
    33    30    31    1
    34    30    34    1
    35    31    32    1
    36    31    35    1
    37    32    33    1
    38    32    36    1
    39    33    41    1
    40    33    37    1
    41    41    42    1
    42    34    38    1
    43    35    39    1
    44    36    40    1
    45    42    43    1
@<TRIPOS>MOLECULE
GDU
 43 45 0 0 0
SMALL
GASTEIGER

@<TRIPOS>ATOM
      1 P          20.9783   71.4342   -2.2958 P.3     1  UNL1        0.2189
      2 O          22.0921   70.6253   -2.8386 O.2     1  UNL1       -0.5170
      3 O          21.4669   72.9557   -2.0978 O.3     1  UNL1       -0.4371
      4 O          19.7390   71.3976   -3.3204 O.3     1  UNL1       -0.3112
      5 C          18.6096   70.9212   -2.5869 C.3     1  UNL1        0.1811
      6 C          16.9615   70.5424   -5.7598 C.3     1  UNL1        0.2383
      7 C          16.9661   69.1168   -5.1511 C.3     1  UNL1        0.1895
      8 O          15.8235   68.3743   -5.5828 O.3     1  UNL1       -0.3779
      9 C          16.8913   69.4126   -3.6305 C.3     1  UNL1        0.1713
     10 C          17.3887   70.8648   -3.5068 C.3     1  UNL1        0.1764
     11 O          17.7499   71.3101   -4.8257 O.3     1  UNL1       -0.3308
     12 O          15.5455   69.2962   -3.1645 O.3     1  UNL1       -0.3794
     13 H          15.8865   67.5012   -5.1711 H       1  UNL1        0.2106
     14 H          15.2723   68.3824   -3.3228 H       1  UNL1        0.2105
     15 N          17.5861   70.5423   -7.0838 N.ar    1  UNL1       -0.2551
     16 C          16.8168   70.4642   -8.1840 C.ar    1  UNL1        0.3323
     17 N          17.3657   70.4658   -9.4130 N.ar    1  UNL1       -0.2743
     18 C          18.7026   70.5361   -9.5606 C.ar    1  UNL1        0.2626
     19 C          19.5258   70.6131   -8.4105 C.ar    1  UNL1        0.0795
     20 C          18.9490   70.6139   -7.1899 C.ar    1  UNL1        0.0869
     21 O          15.6092   70.4007   -8.0667 O.2     1  UNL1       -0.2464
     22 O          19.2006   70.5328  -10.6726 O.2     1  UNL1       -0.2670
     23 H          16.7950   70.4131  -10.1962 H       1  UNL1        0.1734
     24 O          20.5200   70.8300   -0.8755 O.3     1  UNL1       -0.2703
     25 P          21.7378   71.0707    0.1488 P.3     1  UNL1        0.2208
     26 O          21.7223   70.0187    1.1890 O.2     1  UNL1       -0.5170
     27 O          23.1332   71.0109   -0.6534 O.3     1  UNL1       -0.4371
     28 O          21.5801   72.5145    0.8419 O.3     1  UNL1       -0.2858
     29 C          22.3232   72.4731    2.0609 C.3     1  UNL1        0.2704
     30 C          21.4630   73.0213    3.2005 C.3     1  UNL1        0.1967
     31 C          21.0506   74.4583    2.8671 C.3     1  UNL1        0.1715
     32 C          22.3125   75.2701    2.5538 C.3     1  UNL1        0.1694
     33 C          23.1078   74.5517    1.4609 C.3     1  UNL1        0.1761
     34 O          20.2967   72.2101    3.3527 O.3     1  UNL1       -0.3775
     35 O          20.3714   75.0345    3.9848 O.3     1  UNL1       -0.3794
     36 O          23.1100   75.3877    3.7328 O.3     1  UNL1       -0.3794
     37 O          23.5033   73.2610    1.9229 O.3     1  UNL1       -0.3258
     38 H          20.6034   71.3155    3.5540 H       1  UNL1        0.2106
     39 H          19.5942   74.4867    4.1527 H       1  UNL1        0.2105
     40 H          22.5684   75.8393    4.3931 H       1  UNL1        0.2105
     41 C          24.3530   75.3718    1.1161 C.3     1  UNL1        0.1693
     42 O          25.5138   74.7083    1.6193 O.3     1  UNL1       -0.3794
     43 H          26.2746   75.2557    1.3810 H       1  UNL1        0.2105
@<TRIPOS>BOND
     1    15    16   ar
     2    15    20   ar
     3    15     6    1
     4    16    17   ar
     5    16    21    2
     6    17    18   ar
     7    17    23    1
     8    18    19   ar
     9    18    22    2
    10    19    20   ar
    11     6     7    1
    12     6    11    1
    13     7     8    1
    14     7     9    1
    15     8    13    1
    16     9    10    1
    17     9    12    1
    18    10    11    1
    19    10     5    1
    20    12    14    1
    21     5     4    1
    22     4     1    1
    23     1     2    2
    24     1     3    1
    25     1    24    1
    26    24    25    1
    27    25    26    2
    28    25    27    1
    29    25    28    1
    30    28    29    1
    31    29    30    1
    32    29    37    1
    33    30    31    1
    34    30    34    1
    35    31    32    1
    36    31    35    1
    37    32    33    1
    38    32    36    1
    39    33    41    1
    40    33    37    1
    41    41    42    1
    42    34    38    1
    43    35    39    1
    44    36    40    1
    45    42    43    1
@<TRIPOS>MOLECULE
GDU
 43 45 0 0 0
SMALL
GASTEIGER

@<TRIPOS>ATOM
      1 P          20.4332   71.8829   -1.0112 P.3     1  UNL1        0.2189
      2 O          20.6604   70.4543   -0.6998 O.2     1  UNL1       -0.5170
      3 O          21.7899   72.5280   -1.5912 O.3     1  UNL1       -0.4371
      4 O          19.2648   72.0141   -2.1087 O.3     1  UNL1       -0.3112
      5 C          18.8421   70.6865   -2.4238 C.3     1  UNL1        0.1811
      6 C          17.1310   70.5388   -5.5825 C.3     1  UNL1        0.2383
      7 C          17.0546   69.0922   -5.0306 C.3     1  UNL1        0.1895
      8 O          15.8621   68.4400   -5.4730 O.3     1  UNL1       -0.3779
      9 C          17.0189   69.3305   -3.4985 C.3     1  UNL1        0.1713
     10 C          17.6077   70.7430   -3.3256 C.3     1  UNL1        0.1764
     11 O          17.9783   71.2179   -4.6315 O.3     1  UNL1       -0.3308
     12 O          15.6748   69.2791   -3.0161 O.3     1  UNL1       -0.3794
     13 H          15.8758   67.5487   -5.0970 H       1  UNL1        0.2106
     14 H          15.3429   68.3911   -3.2059 H       1  UNL1        0.2105
     15 N          17.7364   70.5534   -6.9152 N.ar    1  UNL1       -0.2551
     16 C          16.9540   70.4521   -8.0042 C.ar    1  UNL1        0.3323
     17 N          17.4851   70.4665   -9.2410 N.ar    1  UNL1       -0.2743
     18 C          18.8174   70.5733   -9.4077 C.ar    1  UNL1        0.2626
     19 C          19.6544   70.6749   -8.2695 C.ar    1  UNL1        0.0795
     20 C          19.0952   70.6623   -7.0408 C.ar    1  UNL1        0.0869
     21 O          15.7504   70.3557   -7.8696 O.2     1  UNL1       -0.2464
     22 O          19.2995   70.5816  -10.5266 O.2     1  UNL1       -0.2670
     23 H          16.9051   70.3968  -10.0159 H       1  UNL1        0.1734
     24 O          20.0012   72.6615    0.3302 O.3     1  UNL1       -0.2703
     25 P          21.0768   72.2726    1.4624 P.3     1  UNL1        0.2208
     26 O          20.4322   72.3240    2.7932 O.2     1  UNL1       -0.5170
     27 O          21.6272   70.7836    1.1905 O.3     1  UNL1       -0.4371
     28 O          22.3036   73.3132    1.4187 O.3     1  UNL1       -0.2858
     29 C          22.7470   73.4888    2.7650 C.3     1  UNL1        0.2704
     30 C          23.4856   74.8225    2.8880 C.3     1  UNL1        0.1967
     31 C          24.6746   74.8248    1.9223 C.3     1  UNL1        0.1715
     32 C          25.5272   73.5798    2.1917 C.3     1  UNL1        0.1694
     33 C          24.6334   72.3393    2.1195 C.3     1  UNL1        0.1761
     34 O          22.5983   75.8930    2.5596 O.3     1  UNL1       -0.3775
     35 O          25.4593   76.0011    2.1298 O.3     1  UNL1       -0.3794
     36 O          26.1159   73.6755    3.4895 O.3     1  UNL1       -0.3794
     37 O          23.6189   72.4181    3.1198 O.3     1  UNL1       -0.3258
     38 H          21.8635   75.8486    3.1865 H       1  UNL1        0.2106
     39 H          24.8816   76.7562    1.9615 H       1  UNL1        0.2105
     40 H          26.6635   74.4714    3.4904 H       1  UNL1        0.2105
     41 C          25.4817   71.0872    2.3533 C.3     1  UNL1        0.1693
     42 O          24.7340   69.9293    1.9774 O.3     1  UNL1       -0.3794
     43 H          25.3030   69.1641    2.1390 H       1  UNL1        0.2105
@<TRIPOS>BOND
     1    15    16   ar
     2    15    20   ar
     3    15     6    1
     4    16    17   ar
     5    16    21    2
     6    17    18   ar
     7    17    23    1
     8    18    19   ar
     9    18    22    2
    10    19    20   ar
    11     6     7    1
    12     6    11    1
    13     7     8    1
    14     7     9    1
    15     8    13    1
    16     9    10    1
    17     9    12    1
    18    10    11    1
    19    10     5    1
    20    12    14    1
    21     5     4    1
    22     4     1    1
    23     1     2    2
    24     1     3    1
    25     1    24    1
    26    24    25    1
    27    25    26    2
    28    25    27    1
    29    25    28    1
    30    28    29    1
    31    29    30    1
    32    29    37    1
    33    30    31    1
    34    30    34    1
    35    31    32    1
    36    31    35    1
    37    32    33    1
    38    32    36    1
    39    33    41    1
    40    33    37    1
    41    41    42    1
    42    34    38    1
    43    35    39    1
    44    36    40    1
    45    42    43    1
@<TRIPOS>MOLECULE
GDU
 43 45 0 0 0
SMALL
GASTEIGER

@<TRIPOS>ATOM
      1 P          20.8587   71.3281   -1.8452 P.3     1  UNL1        0.2189
      2 O          20.5701   70.6576   -0.5580 O.2     1  UNL1       -0.5170
      3 O          21.7970   70.3788   -2.7461 O.3     1  UNL1       -0.4371
      4 O          19.4802   71.6138   -2.6228 O.3     1  UNL1       -0.3112
      5 C          18.7715   70.3748   -2.6777 C.3     1  UNL1        0.1811
      6 C          17.1010   70.3912   -5.8615 C.3     1  UNL1        0.2383
      7 C          16.9341   68.9403   -5.3419 C.3     1  UNL1        0.1895
      8 O          15.7128   68.3669   -5.8142 O.3     1  UNL1       -0.3779
      9 C          16.8897   69.1484   -3.8057 C.3     1  UNL1        0.1713
     10 C          17.5557   70.5207   -3.5945 C.3     1  UNL1        0.1764
     11 O          17.9718   71.0006   -4.8848 O.3     1  UNL1       -0.3308
     12 O          15.5380   69.1642   -3.3425 O.3     1  UNL1       -0.3794
     13 H          15.6701   67.4688   -5.4574 H       1  UNL1        0.2106
     14 H          15.1587   68.3008   -3.5558 H       1  UNL1        0.2105
     15 N          17.7257   70.3986   -7.1853 N.ar    1  UNL1       -0.2551
     16 C          16.9582   70.5070   -8.2842 C.ar    1  UNL1        0.3323
     17 N          17.5077   70.5200   -9.5129 N.ar    1  UNL1       -0.2743
     18 C          18.8422   70.4139   -9.6622 C.ar    1  UNL1        0.2626
     19 C          19.6626   70.2933   -8.5138 C.ar    1  UNL1        0.0795
     20 C          19.0859   70.2873   -7.2933 C.ar    1  UNL1        0.0869
     21 O          15.7530   70.6040   -8.1653 O.2     1  UNL1       -0.2464
     22 O          19.3401   70.4207  -10.7742 O.2     1  UNL1       -0.2670
     23 H          16.9390   70.6032  -10.2948 H       1  UNL1        0.1734
     24 O          21.6173   72.7205   -1.5656 O.3     1  UNL1       -0.2703
     25 P          20.5158   73.7455   -0.9946 P.3     1  UNL1        0.2208
     26 O          20.4162   74.9147   -1.8958 O.2     1  UNL1       -0.5170
     27 O          19.0867   73.0072   -0.9143 O.3     1  UNL1       -0.4371
     28 O          20.9486   74.2355    0.4760 O.3     1  UNL1       -0.2858
     29 C          19.9312   73.7951    1.3763 C.3     1  UNL1        0.2704
     30 C          19.5194   74.9539    2.2856 C.3     1  UNL1        0.1967
     31 C          20.7489   75.4438    3.0568 C.3     1  UNL1        0.1715
     32 C          21.3869   74.2480    3.7726 C.3     1  UNL1        0.1694
     33 C          21.6591   73.1426    2.7494 C.3     1  UNL1        0.1761
     34 O          18.9932   76.0202    1.4934 O.3     1  UNL1       -0.3775
     35 O          20.3536   76.4261    4.0167 O.3     1  UNL1       -0.3794
     36 O          20.4977   73.7644    4.7804 O.3     1  UNL1       -0.3794
     37 O          20.4301   72.7160    2.1633 O.3     1  UNL1       -0.3258
     38 H          18.2275   75.6655    1.0215 H       1  UNL1        0.2106
     39 H          19.9483   77.1512    3.5245 H       1  UNL1        0.2105
     40 H          20.3508   74.4933    5.3972 H       1  UNL1        0.2105
     41 C          22.3278   71.9566    3.4480 C.3     1  UNL1        0.1693
     42 O          22.8445   72.3786    4.7113 O.3     1  UNL1       -0.3794
     43 H          23.2559   71.6038    5.1184 H       1  UNL1        0.2105
@<TRIPOS>BOND
     1    15    16   ar
     2    15    20   ar
     3    15     6    1
     4    16    17   ar
     5    16    21    2
     6    17    18   ar
     7    17    23    1
     8    18    19   ar
     9    18    22    2
    10    19    20   ar
    11     6     7    1
    12     6    11    1
    13     7     8    1
    14     7     9    1
    15     8    13    1
    16     9    10    1
    17     9    12    1
    18    10    11    1
    19    10     5    1
    20    12    14    1
    21     5     4    1
    22     4     1    1
    23     1     2    2
    24     1     3    1
    25     1    24    1
    26    24    25    1
    27    25    26    2
    28    25    27    1
    29    25    28    1
    30    28    29    1
    31    29    30    1
    32    29    37    1
    33    30    31    1
    34    30    34    1
    35    31    32    1
    36    31    35    1
    37    32    33    1
    38    32    36    1
    39    33    41    1
    40    33    37    1
    41    41    42    1
    42    34    38    1
    43    35    39    1
    44    36    40    1
    45    42    43    1
@<TRIPOS>MOLECULE
GDU
 43 45 0 0 0
SMALL
GASTEIGER

@<TRIPOS>ATOM
      1 P          20.3590   71.0630   -2.1008 P.3     1  UNL1        0.2189
      2 O          20.2621   72.5351   -2.2151 O.2     1  UNL1       -0.5170
      3 O          20.5411   70.6557   -0.5536 O.3     1  UNL1       -0.4371
      4 O          19.0174   70.3900   -2.6786 O.3     1  UNL1       -0.3112
      5 C          17.9767   71.3591   -2.5428 C.3     1  UNL1        0.1811
      6 C          16.7154   70.5620   -5.8140 C.3     1  UNL1        0.2383
      7 C          16.8667   69.1892   -5.1102 C.3     1  UNL1        0.1895
      8 O          15.8904   68.2608   -5.5880 O.3     1  UNL1       -0.3779
      9 C          16.6032   69.5542   -3.6261 C.3     1  UNL1        0.1713
     10 C          16.8715   71.0691   -3.5600 C.3     1  UNL1        0.1764
     11 O          17.2906   71.4899   -4.8698 O.3     1  UNL1       -0.3308
     12 O          15.2496   69.2631   -3.2728 O.3     1  UNL1       -0.3794
     13 H          16.0385   67.4312   -5.1129 H       1  UNL1        0.2106
     14 H          15.1277   68.3113   -3.3908 H       1  UNL1        0.2105
     15 N          17.4586   70.5823   -7.0750 N.ar    1  UNL1       -0.2551
     16 C          16.7911   70.6026   -8.2422 C.ar    1  UNL1        0.3323
     17 N          17.4504   70.6251   -9.4156 N.ar    1  UNL1       -0.2743
     18 C          18.7971   70.6175   -9.4391 C.ar    1  UNL1        0.2626
     19 C          19.5134   70.5903   -8.2175 C.ar    1  UNL1        0.0795
     20 C          18.8274   70.5725   -7.0549 C.ar    1  UNL1        0.0869
     21 O          15.5762   70.6102   -8.2369 O.2     1  UNL1       -0.2464
     22 O          19.3947   70.6330  -10.5007 O.2     1  UNL1       -0.2670
     23 H          16.9525   70.6439  -10.2483 H       1  UNL1        0.1734
     24 O          21.6281   70.5426   -2.9441 O.3     1  UNL1       -0.2703
     25 P          22.8964   71.4066   -2.4595 P.3     1  UNL1        0.2208
     26 O          22.9385   71.4338   -0.9808 O.2     1  UNL1       -0.5170
     27 O          24.2486   70.7364   -3.0222 O.3     1  UNL1       -0.4371
     28 O          22.7698   72.9094   -3.0215 O.3     1  UNL1       -0.2858
     29 C          23.9272   73.1518   -3.8224 C.3     1  UNL1        0.2704
     30 C          24.3415   74.6180   -3.6877 C.3     1  UNL1        0.1967
     31 C          23.1780   75.5081   -4.1352 C.3     1  UNL1        0.1715
     32 C          22.7457   75.0790   -5.5419 C.3     1  UNL1        0.1694
     33 C          22.4502   73.5771   -5.5353 C.3     1  UNL1        0.1761
     34 O          24.6657   74.9005   -2.3252 O.3     1  UNL1       -0.3775
     35 O          23.5984   76.8738   -4.1552 O.3     1  UNL1       -0.3794
     36 O          23.7936   75.3607   -6.4705 O.3     1  UNL1       -0.3794
     37 O          23.6305   72.8559   -5.1851 O.3     1  UNL1       -0.3258
     38 H          25.3959   74.3140   -2.0848 H       1  UNL1        0.2106
     39 H          23.8716   77.0958   -3.2561 H       1  UNL1        0.2105
     40 H          23.9491   76.3136   -6.4366 H       1  UNL1        0.2105
     41 C          21.9845   73.1447   -6.9275 C.3     1  UNL1        0.1693
     42 O          23.1194   72.9872   -7.7809 O.3     1  UNL1       -0.3794
     43 H          22.7834   72.7142   -8.6457 H       1  UNL1        0.2105
@<TRIPOS>BOND
     1    15    16   ar
     2    15    20   ar
     3    15     6    1
     4    16    17   ar
     5    16    21    2
     6    17    18   ar
     7    17    23    1
     8    18    19   ar
     9    18    22    2
    10    19    20   ar
    11     6     7    1
    12     6    11    1
    13     7     8    1
    14     7     9    1
    15     8    13    1
    16     9    10    1
    17     9    12    1
    18    10    11    1
    19    10     5    1
    20    12    14    1
    21     5     4    1
    22     4     1    1
    23     1     2    2
    24     1     3    1
    25     1    24    1
    26    24    25    1
    27    25    26    2
    28    25    27    1
    29    25    28    1
    30    28    29    1
    31    29    30    1
    32    29    37    1
    33    30    31    1
    34    30    34    1
    35    31    32    1
    36    31    35    1
    37    32    33    1
    38    32    36    1
    39    33    41    1
    40    33    37    1
    41    41    42    1
    42    34    38    1
    43    35    39    1
    44    36    40    1
    45    42    43    1
@<TRIPOS>MOLECULE
GDU
 43 45 0 0 0
SMALL
GASTEIGER

@<TRIPOS>ATOM
      1 P          21.1055   71.0870   -0.4912 P.3     1  UNL1        0.2189
      2 O          21.3741   70.2148    0.6735 O.2     1  UNL1       -0.5170
      3 O          22.2221   70.8301   -1.6228 O.3     1  UNL1       -0.4371
      4 O          19.6499   70.7530   -1.0881 O.3     1  UNL1       -0.3112
      5 C          19.8105   70.5777   -2.4967 C.3     1  UNL1        0.1811
      6 C          17.6240   70.6929   -5.3486 C.3     1  UNL1        0.2383
      7 C          17.4067   69.2803   -4.7485 C.3     1  UNL1        0.1895
      8 O          16.0715   68.8268   -4.9824 O.3     1  UNL1       -0.3779
      9 C          17.6498   69.5284   -3.2370 C.3     1  UNL1        0.1713
     10 C          18.4748   70.8282   -3.1991 C.3     1  UNL1        0.1764
     11 O          18.7067   71.2310   -4.5601 O.3     1  UNL1       -0.3308
     12 O          16.4070   69.6967   -2.5522 O.3     1  UNL1       -0.3794
     13 H          16.0025   67.9468   -4.5866 H       1  UNL1        0.2106
     14 H          15.9129   68.8729   -2.6620 H       1  UNL1        0.2105
     15 N          18.0077   70.6034   -6.7584 N.ar    1  UNL1       -0.2551
     16 C          17.0576   70.6121   -7.7100 C.ar    1  UNL1        0.3323
     17 N          17.3837   70.5345   -9.0136 N.ar    1  UNL1       -0.2743
     18 C          18.6741   70.4364   -9.3870 C.ar    1  UNL1        0.2626
     19 C          19.6854   70.4203   -8.3954 C.ar    1  UNL1        0.0795
     20 C          19.3308   70.5037   -7.0955 C.ar    1  UNL1        0.0869
     21 O          15.8893   70.7006   -7.3885 O.2     1  UNL1       -0.2464
     22 O          18.9700   70.3613  -10.5666 O.2     1  UNL1       -0.2670
     23 H          16.6852   70.5465   -9.6872 H       1  UNL1        0.1734
     24 O          21.1567   72.6286   -0.0291 O.3     1  UNL1       -0.2703
     25 P          22.6781   72.9385    0.3943 P.3     1  UNL1        0.2208
     26 O          23.4432   71.6732    0.4454 O.2     1  UNL1       -0.5170
     27 O          23.3459   73.9256   -0.6891 O.3     1  UNL1       -0.4371
     28 O          22.7009   73.6395    1.8428 O.3     1  UNL1       -0.2858
     29 C          22.8878   72.5998    2.8040 C.3     1  UNL1        0.2704
     30 C          21.6545   72.5109    3.7042 C.3     1  UNL1        0.1967
     31 C          21.4467   73.8597    4.3999 C.3     1  UNL1        0.1715
     32 C          22.7471   74.2494    5.1118 C.3     1  UNL1        0.1694
     33 C          23.8981   74.2083    4.1035 C.3     1  UNL1        0.1761
     34 O          20.5066   72.1966    2.9137 O.3     1  UNL1       -0.3775
     35 O          20.3885   73.7498    5.3542 O.3     1  UNL1       -0.3794
     36 O          23.0037   73.3306    6.1748 O.3     1  UNL1       -0.3794
     37 O          24.0421   72.8844    3.5910 O.3     1  UNL1       -0.3258
     38 H          20.6842   71.3458    2.4900 H       1  UNL1        0.2106
     39 H          19.5966   73.4924    4.8654 H       1  UNL1        0.2105
     40 H          22.2529   73.3862    6.7801 H       1  UNL1        0.2105
     41 C          25.1961   74.6291    4.7964 C.3     1  UNL1        0.1693
     42 O          24.8877   75.2671    6.0369 O.3     1  UNL1       -0.3794
     43 H          25.7305   75.5154    6.4410 H       1  UNL1        0.2105
@<TRIPOS>BOND
     1    15    16   ar
     2    15    20   ar
     3    15     6    1
     4    16    17   ar
     5    16    21    2
     6    17    18   ar
     7    17    23    1
     8    18    19   ar
     9    18    22    2
    10    19    20   ar
    11     6     7    1
    12     6    11    1
    13     7     8    1
    14     7     9    1
    15     8    13    1
    16     9    10    1
    17     9    12    1
    18    10    11    1
    19    10     5    1
    20    12    14    1
    21     5     4    1
    22     4     1    1
    23     1     2    2
    24     1     3    1
    25     1    24    1
    26    24    25    1
    27    25    26    2
    28    25    27    1
    29    25    28    1
    30    28    29    1
    31    29    30    1
    32    29    37    1
    33    30    31    1
    34    30    34    1
    35    31    32    1
    36    31    35    1
    37    32    33    1
    38    32    36    1
    39    33    41    1
    40    33    37    1
    41    41    42    1
    42    34    38    1
    43    35    39    1
    44    36    40    1
    45    42    43    1
@<TRIPOS>MOLECULE
GDU
 43 45 0 0 0
SMALL
GASTEIGER

@<TRIPOS>ATOM
      1 P          23.4435   72.0471   -3.3166 P.3     1  UNL1        0.2189
      2 O          24.2546   72.8985   -4.2147 O.2     1  UNL1       -0.5170
      3 O          24.2713   70.7165   -2.9462 O.3     1  UNL1       -0.4371
      4 O          23.1021   72.8587   -1.9706 O.3     1  UNL1       -0.3112
      5 C          21.7448   72.5599   -1.6403 C.3     1  UNL1        0.1811
      6 C          23.0506   72.0287    1.6673 C.3     1  UNL1        0.2383
      7 C          22.3632   73.4162    1.7386 C.3     1  UNL1        0.1895
      8 O          21.8502   73.6644    3.0495 O.3     1  UNL1       -0.3779
      9 C          21.2097   73.2604    0.7136 C.3     1  UNL1        0.1713
     10 C          21.6627   72.0949   -0.1853 C.3     1  UNL1        0.1764
     11 O          22.9628   71.6806    0.2692 O.3     1  UNL1       -0.3308
     12 O          19.9877   72.9402    1.3815 O.3     1  UNL1       -0.3794
     13 H          21.4376   74.5391    3.0265 H       1  UNL1        0.2106
     14 H          19.7888   73.6799    1.9714 H       1  UNL1        0.2105
     15 N          24.4494   72.1214    2.0888 N.ar    1  UNL1       -0.2551
     16 C          25.1890   71.0035    2.1960 C.ar    1  UNL1        0.3323
     17 N          26.4784   71.0614    2.5781 N.ar    1  UNL1       -0.2743
     18 C          27.0484   72.2462    2.8704 C.ar    1  UNL1        0.2626
     19 C          26.2798   73.4315    2.7675 C.ar    1  UNL1        0.0795
     20 C          24.9901   73.3453    2.3779 C.ar    1  UNL1        0.0869
     21 O          24.6888   69.9275    1.9352 O.2     1  UNL1       -0.2464
     22 O          28.2141   72.2992    3.2210 O.2     1  UNL1       -0.2670
     23 H          26.9986   70.2450    2.6459 H       1  UNL1        0.1734
     24 O          22.0750   71.6367   -4.0591 O.3     1  UNL1       -0.2703
     25 P          21.8930   72.6503   -5.2958 P.3     1  UNL1        0.2208
     26 O          22.0081   74.0438   -4.8122 O.2     1  UNL1       -0.5170
     27 O          23.0370   72.3677   -6.3938 O.3     1  UNL1       -0.4371
     28 O          20.4449   72.4305   -5.9626 O.3     1  UNL1       -0.2858
     29 C          20.0711   71.0762   -5.7061 C.3     1  UNL1        0.2704
     30 C          19.9929   70.3105   -7.0279 C.3     1  UNL1        0.1967
     31 C          18.9666   70.9916   -7.9385 C.3     1  UNL1        0.1715
     32 C          17.6420   71.1157   -7.1772 C.3     1  UNL1        0.1694
     33 C          17.8985   71.8227   -5.8440 C.3     1  UNL1        0.1761
     34 O          21.2739   70.3153   -7.6604 O.3     1  UNL1       -0.3775
     35 O          18.7741   70.2060   -9.1168 O.3     1  UNL1       -0.3794
     36 O          17.1047   69.8142   -6.9378 O.3     1  UNL1       -0.3794
     37 O          18.8027   71.0500   -5.0557 O.3     1  UNL1       -0.3258
     38 H          21.8879   69.8846   -7.0502 H       1  UNL1        0.2106
     39 H          19.6320   70.1447   -9.5555 H       1  UNL1        0.2105
     40 H          16.9651   69.4057   -7.8020 H       1  UNL1        0.2105
     41 C          16.5761   71.9825   -5.0906 C.3     1  UNL1        0.1693
     42 O          15.4910   71.9303   -6.0184 O.3     1  UNL1       -0.3794
     43 H          14.6782   72.0338   -5.5047 H       1  UNL1        0.2105
@<TRIPOS>BOND
     1    15    16   ar
     2    15    20   ar
     3    15     6    1
     4    16    17   ar
     5    16    21    2
     6    17    18   ar
     7    17    23    1
     8    18    19   ar
     9    18    22    2
    10    19    20   ar
    11     6     7    1
    12     6    11    1
    13     7     8    1
    14     7     9    1
    15     8    13    1
    16     9    10    1
    17     9    12    1
    18    10    11    1
    19    10     5    1
    20    12    14    1
    21     5     4    1
    22     4     1    1
    23     1     2    2
    24     1     3    1
    25     1    24    1
    26    24    25    1
    27    25    26    2
    28    25    27    1
    29    25    28    1
    30    28    29    1
    31    29    30    1
    32    29    37    1
    33    30    31    1
    34    30    34    1
    35    31    32    1
    36    31    35    1
    37    32    33    1
    38    32    36    1
    39    33    41    1
    40    33    37    1
    41    41    42    1
    42    34    38    1
    43    35    39    1
    44    36    40    1
    45    42    43    1
@<TRIPOS>MOLECULE
GDU
 43 45 0 0 0
SMALL
GASTEIGER

@<TRIPOS>ATOM
      1 P          20.9897   71.3006   -2.0236 P.3     1  UNL1        0.2189
      2 O          20.8703   70.6119   -0.7194 O.2     1  UNL1       -0.5170
      3 O          21.7352   70.3346   -3.0743 O.3     1  UNL1       -0.4371
      4 O          19.5232   71.6636   -2.5755 O.3     1  UNL1       -0.3112
      5 C          18.7361   70.4762   -2.4707 C.3     1  UNL1        0.1811
      6 C          17.0541   70.4539   -5.6484 C.3     1  UNL1        0.2383
      7 C          16.9292   68.9977   -5.1319 C.3     1  UNL1        0.1895
      8 O          15.7226   68.3919   -5.6012 O.3     1  UNL1       -0.3779
      9 C          16.8848   69.2008   -3.5950 C.3     1  UNL1        0.1713
     10 C          17.5133   70.5906   -3.3829 C.3     1  UNL1        0.1764
     11 O          17.9112   71.0849   -4.6734 O.3     1  UNL1       -0.3308
     12 O          15.5349   69.1781   -3.1269 O.3     1  UNL1       -0.3794
     13 H          15.7061   67.4921   -5.2464 H       1  UNL1        0.2106
     14 H          15.1788   68.3051   -3.3410 H       1  UNL1        0.2105
     15 N          17.6734   70.4818   -6.9745 N.ar    1  UNL1       -0.2551
     16 C          16.8980   70.4663   -8.0731 C.ar    1  UNL1        0.3323
     17 N          17.4421   70.4949   -9.3039 N.ar    1  UNL1       -0.2743
     18 C          18.7800   70.5297   -9.4553 C.ar    1  UNL1        0.2626
     19 C          19.6094   70.5406   -8.3072 C.ar    1  UNL1        0.0795
     20 C          19.0375   70.5157   -7.0846 C.ar    1  UNL1        0.0869
     21 O          15.6895   70.4355   -7.9523 O.2     1  UNL1       -0.2464
     22 O          19.2736   70.5507  -10.5691 O.2     1  UNL1       -0.2670
     23 H          16.8672   70.4874  -10.0858 H       1  UNL1        0.1734
     24 O          21.8449   72.6523   -1.8393 O.3     1  UNL1       -0.2703
     25 P          20.8291   73.8809   -2.0601 P.3     1  UNL1        0.2208
     26 O          19.6925   73.7558   -1.1211 O.2     1  UNL1       -0.5170
     27 O          21.5991   75.2691   -1.7878 O.3     1  UNL1       -0.4371
     28 O          20.2812   73.8605   -3.5731 O.3     1  UNL1       -0.2858
     29 C          20.8775   74.9705   -4.2455 C.3     1  UNL1        0.2704
     30 C          19.8274   75.6626   -5.1158 C.3     1  UNL1        0.1967
     31 C          19.2727   74.6531   -6.1255 C.3     1  UNL1        0.1715
     32 C          20.4459   74.0300   -6.8904 C.3     1  UNL1        0.1694
     33 C          21.4489   73.4595   -5.8847 C.3     1  UNL1        0.1761
     34 O          18.7670   76.1486   -4.2908 O.3     1  UNL1       -0.3775
     35 O          18.3997   75.3192   -7.0402 O.3     1  UNL1       -0.3794
     36 O          21.0797   75.0294   -7.6901 O.3     1  UNL1       -0.3794
     37 O          21.9530   74.5088   -5.0596 O.3     1  UNL1       -0.3258
     38 H          19.1622   76.7735   -3.6677 H       1  UNL1        0.2106
     39 H          17.6863   75.7046   -6.5160 H       1  UNL1        0.2105
     40 H          20.4112   75.3633   -8.3025 H       1  UNL1        0.2105
     41 C          22.6081   72.8043   -6.6388 C.3     1  UNL1        0.1693
     42 O          22.2362   72.6070   -8.0040 O.3     1  UNL1       -0.3794
     43 H          22.9923   72.1939   -8.4432 H       1  UNL1        0.2105
@<TRIPOS>BOND
     1    15    16   ar
     2    15    20   ar
     3    15     6    1
     4    16    17   ar
     5    16    21    2
     6    17    18   ar
     7    17    23    1
     8    18    19   ar
     9    18    22    2
    10    19    20   ar
    11     6     7    1
    12     6    11    1
    13     7     8    1
    14     7     9    1
    15     8    13    1
    16     9    10    1
    17     9    12    1
    18    10    11    1
    19    10     5    1
    20    12    14    1
    21     5     4    1
    22     4     1    1
    23     1     2    2
    24     1     3    1
    25     1    24    1
    26    24    25    1
    27    25    26    2
    28    25    27    1
    29    25    28    1
    30    28    29    1
    31    29    30    1
    32    29    37    1
    33    30    31    1
    34    30    34    1
    35    31    32    1
    36    31    35    1
    37    32    33    1
    38    32    36    1
    39    33    41    1
    40    33    37    1
    41    41    42    1
    42    34    38    1
    43    35    39    1
    44    36    40    1
    45    42    43    1
@<TRIPOS>MOLECULE
GDU
 43 45 0 0 0
SMALL
GASTEIGER

@<TRIPOS>ATOM
      1 P          23.3334   72.9792   -3.8207 P.3     1  UNL1        0.2189
      2 O          24.2086   71.8017   -3.6284 O.2     1  UNL1       -0.5170
      3 O          24.0975   74.0744   -4.7206 O.3     1  UNL1       -0.4371
      4 O          21.9792   72.5267   -4.5611 O.3     1  UNL1       -0.3112
      5 C          22.2860   72.4130   -5.9516 C.3     1  UNL1        0.1811
      6 C          19.1660   70.6450   -6.2104 C.3     1  UNL1        0.2383
      7 C          18.9459   71.9442   -7.0269 C.3     1  UNL1        0.1895
      8 O          18.0276   71.7228   -8.0997 O.3     1  UNL1       -0.3779
      9 C          20.3702   72.2326   -7.5686 C.3     1  UNL1        0.1713
     10 C          21.2973   71.4539   -6.6171 C.3     1  UNL1        0.1764
     11 O          20.4681   70.8362   -5.6176 O.3     1  UNL1       -0.3308
     12 O          20.5014   71.7539   -8.9086 O.3     1  UNL1       -0.3794
     13 H          17.9346   72.5655   -8.5656 H       1  UNL1        0.2106
     14 H          19.8561   72.2365   -9.4429 H       1  UNL1        0.2105
     15 N          18.1425   70.5055   -5.1731 N.ar    1  UNL1       -0.2551
     16 C          17.0154   69.8209   -5.4362 C.ar    1  UNL1        0.3323
     17 N          16.0603   69.6749   -4.4990 N.ar    1  UNL1       -0.2743
     18 C          16.2153   70.2240   -3.2789 C.ar    1  UNL1        0.2626
     19 C          17.3948   70.9528   -2.9894 C.ar    1  UNL1        0.0795
     20 C          18.3386   71.0803   -3.9462 C.ar    1  UNL1        0.0869
     21 O          16.8617   69.3195   -6.5321 O.2     1  UNL1       -0.2464
     22 O          15.3492   70.0964   -2.4315 O.2     1  UNL1       -0.2670
     23 H          15.2551   69.1739   -4.7048 H       1  UNL1        0.1734
     24 O          22.9748   73.6199   -2.3878 O.3     1  UNL1       -0.2703
     25 P          22.5028   72.4080   -1.4398 P.3     1  UNL1        0.2208
     26 O          21.2062   71.8820   -1.9208 O.2     1  UNL1       -0.5170
     27 O          23.6054   71.2347   -1.4800 O.3     1  UNL1       -0.4371
     28 O          22.3406   72.9387    0.0708 O.3     1  UNL1       -0.2858
     29 C          23.4186   72.3820    0.8243 C.3     1  UNL1        0.2704
     30 C          22.8742   71.7690    2.1154 C.3     1  UNL1        0.1967
     31 C          22.1571   72.8572    2.9204 C.3     1  UNL1        0.1715
     32 C          23.1166   74.0371    3.1124 C.3     1  UNL1        0.1694
     33 C          23.6414   74.4797    1.7443 C.3     1  UNL1        0.1761
     34 O          21.9549   70.7224    1.7979 O.3     1  UNL1       -0.3775
     35 O          21.7714   72.3367    4.1942 O.3     1  UNL1       -0.3794
     36 O          24.2082   73.6353    3.9412 O.3     1  UNL1       -0.3794
     37 O          24.3589   73.4077    1.1343 O.3     1  UNL1       -0.3258
     38 H          22.4463   70.0651    1.2866 H       1  UNL1        0.2106
     39 H          21.1804   71.5921    4.0250 H       1  UNL1        0.2105
     40 H          23.8310   73.3603    4.7870 H       1  UNL1        0.2105
     41 C          24.5742   75.6798    1.9217 C.3     1  UNL1        0.1693
     42 O          23.8179   76.8881    1.8266 O.3     1  UNL1       -0.3794
     43 H          24.4409   77.6183    1.9442 H       1  UNL1        0.2105
@<TRIPOS>BOND
     1    15    16   ar
     2    15    20   ar
     3    15     6    1
     4    16    17   ar
     5    16    21    2
     6    17    18   ar
     7    17    23    1
     8    18    19   ar
     9    18    22    2
    10    19    20   ar
    11     6     7    1
    12     6    11    1
    13     7     8    1
    14     7     9    1
    15     8    13    1
    16     9    10    1
    17     9    12    1
    18    10    11    1
    19    10     5    1
    20    12    14    1
    21     5     4    1
    22     4     1    1
    23     1     2    2
    24     1     3    1
    25     1    24    1
    26    24    25    1
    27    25    26    2
    28    25    27    1
    29    25    28    1
    30    28    29    1
    31    29    30    1
    32    29    37    1
    33    30    31    1
    34    30    34    1
    35    31    32    1
    36    31    35    1
    37    32    33    1
    38    32    36    1
    39    33    41    1
    40    33    37    1
    41    41    42    1
    42    34    38    1
    43    35    39    1
    44    36    40    1
    45    42    43    1
@<TRIPOS>MOLECULE
GDU
 43 45 0 0 0
SMALL
GASTEIGER

@<TRIPOS>ATOM
      1 P          16.9216   69.5390   -3.0512 P.3     1  UNL1        0.2189
      2 O          18.0529   70.4919   -3.0939 O.2     1  UNL1       -0.5170
      3 O          17.1829   68.4475   -1.8965 O.3     1  UNL1       -0.4371
      4 O          15.5599   70.3357   -2.7383 O.3     1  UNL1       -0.3112
      5 C          15.2752   70.1401   -1.3523 C.3     1  UNL1        0.1811
      6 C          12.7031   68.3352    0.3953 C.3     1  UNL1        0.2383
      7 C          12.4517   69.8209    0.7592 C.3     1  UNL1        0.1895
      8 O          11.0609   70.0625    0.9841 O.3     1  UNL1       -0.3779
      9 C          12.9415   70.5551   -0.5161 C.3     1  UNL1        0.1713
     10 C          13.8771   69.5389   -1.1969 C.3     1  UNL1        0.1764
     11 O          13.9366   68.3758   -0.3533 O.3     1  UNL1       -0.3308
     12 O          11.8366   70.8743   -1.3642 O.3     1  UNL1       -0.3794
     13 H          10.9730   71.0001    1.2054 H       1  UNL1        0.2106
     14 H          11.2590   71.4646   -0.8616 H       1  UNL1        0.2105
     15 N          12.8600   67.5252    1.6045 N.ar    1  UNL1       -0.2551
     16 C          12.4394   66.2479    1.6107 C.ar    1  UNL1        0.3323
     17 N          12.5752   65.4805    2.7082 N.ar    1  UNL1       -0.2743
     18 C          13.1287   65.9862    3.8272 C.ar    1  UNL1        0.2626
     19 C          13.5710   67.3317    3.8371 C.ar    1  UNL1        0.0795
     20 C          13.4267   68.0779    2.7213 C.ar    1  UNL1        0.0869
     21 O          11.9386   65.7778    0.6086 O.2     1  UNL1       -0.2464
     22 O          13.2476   65.2938    4.8227 O.2     1  UNL1       -0.2670
     23 H          12.2700   64.5595    2.6936 H       1  UNL1        0.1734
     24 O          16.7946   68.7942   -4.4730 O.3     1  UNL1       -0.2703
     25 P          16.7484   69.9430   -5.5991 P.3     1  UNL1        0.2208
     26 O          15.9102   69.4903   -6.7312 O.2     1  UNL1       -0.5170
     27 O          16.1199   71.2859   -4.9700 O.3     1  UNL1       -0.4371
     28 O          18.2405   70.2440   -6.1217 O.3     1  UNL1       -0.2858
     29 C          18.2859   71.6276   -6.4731 C.3     1  UNL1        0.2704
     30 C          18.4644   71.7629   -7.9861 C.3     1  UNL1        0.1967
     31 C          19.7591   71.0569   -8.4005 C.3     1  UNL1        0.1715
     32 C          20.9116   71.6112   -7.5555 C.3     1  UNL1        0.1694
     33 C          20.5479   71.4854   -6.0740 C.3     1  UNL1        0.1761
     34 O          17.3543   71.1614   -8.6548 O.3     1  UNL1       -0.3775
     35 O          20.0161   71.2993   -9.7853 O.3     1  UNL1       -0.3794
     36 O          21.1279   72.9842   -7.8844 O.3     1  UNL1       -0.3794
     37 O          19.3762   72.2518   -5.7992 O.3     1  UNL1       -0.3258
     38 H          16.5627   71.6313   -8.3593 H       1  UNL1        0.2106
     39 H          19.2630   70.9463  -10.2757 H       1  UNL1        0.2105
     40 H          21.3478   73.0155   -8.8246 H       1  UNL1        0.2105
     41 C          21.7069   72.0048   -5.2202 C.3     1  UNL1        0.1693
     42 O          21.2708   73.1358   -4.4640 O.3     1  UNL1       -0.3794
     43 H          22.0284   73.4314   -3.9405 H       1  UNL1        0.2105
@<TRIPOS>BOND
     1    15    16   ar
     2    15    20   ar
     3    15     6    1
     4    16    17   ar
     5    16    21    2
     6    17    18   ar
     7    17    23    1
     8    18    19   ar
     9    18    22    2
    10    19    20   ar
    11     6     7    1
    12     6    11    1
    13     7     8    1
    14     7     9    1
    15     8    13    1
    16     9    10    1
    17     9    12    1
    18    10    11    1
    19    10     5    1
    20    12    14    1
    21     5     4    1
    22     4     1    1
    23     1     2    2
    24     1     3    1
    25     1    24    1
    26    24    25    1
    27    25    26    2
    28    25    27    1
    29    25    28    1
    30    28    29    1
    31    29    30    1
    32    29    37    1
    33    30    31    1
    34    30    34    1
    35    31    32    1
    36    31    35    1
    37    32    33    1
    38    32    36    1
    39    33    41    1
    40    33    37    1
    41    41    42    1
    42    34    38    1
    43    35    39    1
    44    36    40    1
    45    42    43    1
@<TRIPOS>MOLECULE
GDU
 43 45 0 0 0
SMALL
GASTEIGER

@<TRIPOS>ATOM
      1 P          21.7035   72.9737   -2.0187 P.3     1  UNL1        0.2189
      2 O          21.4169   73.9183   -3.1210 O.2     1  UNL1       -0.5170
      3 O          22.8588   71.9496   -2.4764 O.3     1  UNL1       -0.4371
      4 O          22.1941   73.7922   -0.7240 O.3     1  UNL1       -0.3112
      5 C          21.1370   73.7231    0.2343 C.3     1  UNL1        0.1811
      6 C          23.2343   71.9107    2.5243 C.3     1  UNL1        0.2383
      7 C          22.5120   72.9611    3.4063 C.3     1  UNL1        0.1895
      8 O          22.3207   72.4672    4.7340 O.3     1  UNL1       -0.3779
      9 C          21.1539   73.1209    2.6746 C.3     1  UNL1        0.1713
     10 C          21.4362   72.6164    1.2472 C.3     1  UNL1        0.1764
     11 O          22.8278   72.2594    1.1839 O.3     1  UNL1       -0.3308
     12 O          20.1498   72.3232    3.3050 O.3     1  UNL1       -0.3794
     13 H          21.8689   73.1651    5.2287 H       1  UNL1        0.2106
     14 H          20.0612   72.6489    4.2109 H       1  UNL1        0.2105
     15 N          24.6866   72.0239    2.6687 N.ar    1  UNL1       -0.2551
     16 C          25.4635   70.9464    2.4596 C.ar    1  UNL1        0.3323
     17 N          26.8017   71.0244    2.5824 N.ar    1  UNL1       -0.2743
     18 C          27.3861   72.1876    2.9284 C.ar    1  UNL1        0.2626
     19 C          26.5799   73.3294    3.1574 C.ar    1  UNL1        0.0795
     20 C          25.2407   73.2245    3.0232 C.ar    1  UNL1        0.0869
     21 O          24.9508   69.8904    2.1465 O.2     1  UNL1       -0.2464
     22 O          28.5970   72.2580    3.0444 O.2     1  UNL1       -0.2670
     23 H          27.3474   70.2378    2.4236 H       1  UNL1        0.1734
     24 O          20.3684   72.1487   -1.6594 O.3     1  UNL1       -0.2703
     25 P          20.1922   71.0266   -2.7996 P.3     1  UNL1        0.2208
     26 O          21.4527   70.2649   -2.9407 O.2     1  UNL1       -0.5170
     27 O          19.0027   70.0229   -2.3851 O.3     1  UNL1       -0.4371
     28 O          19.8321   71.7344   -4.1994 O.3     1  UNL1       -0.2858
     29 C          20.2485   70.8427   -5.2344 C.3     1  UNL1        0.2704
     30 C          21.2011   71.5726   -6.1826 C.3     1  UNL1        0.1967
     31 C          20.4814   72.7888   -6.7737 C.3     1  UNL1        0.1715
     32 C          19.1651   72.3206   -7.4043 C.3     1  UNL1        0.1694
     33 C          18.3655   71.5350   -6.3619 C.3     1  UNL1        0.1761
     34 O          22.3575   72.0024   -5.4621 O.3     1  UNL1       -0.3775
     35 O          21.3051   73.3963   -7.7712 O.3     1  UNL1       -0.3794
     36 O          19.4445   71.4849   -8.5284 O.3     1  UNL1       -0.3794
     37 O          19.1056   70.3855   -5.9537 O.3     1  UNL1       -0.3258
     38 H          22.7737   71.2072   -5.1026 H       1  UNL1        0.2106
     39 H          22.1234   73.6633   -7.3337 H       1  UNL1        0.2105
     40 H          19.9525   72.0178   -9.1539 H       1  UNL1        0.2105
     41 C          17.0334   71.0919   -6.9713 C.3     1  UNL1        0.1693
     42 O          16.1917   70.5666   -5.9434 O.3     1  UNL1       -0.3794
     43 H          15.3645   70.3003   -6.3678 H       1  UNL1        0.2105
@<TRIPOS>BOND
     1    15    16   ar
     2    15    20   ar
     3    15     6    1
     4    16    17   ar
     5    16    21    2
     6    17    18   ar
     7    17    23    1
     8    18    19   ar
     9    18    22    2
    10    19    20   ar
    11     6     7    1
    12     6    11    1
    13     7     8    1
    14     7     9    1
    15     8    13    1
    16     9    10    1
    17     9    12    1
    18    10    11    1
    19    10     5    1
    20    12    14    1
    21     5     4    1
    22     4     1    1
    23     1     2    2
    24     1     3    1
    25     1    24    1
    26    24    25    1
    27    25    26    2
    28    25    27    1
    29    25    28    1
    30    28    29    1
    31    29    30    1
    32    29    37    1
    33    30    31    1
    34    30    34    1
    35    31    32    1
    36    31    35    1
    37    32    33    1
    38    32    36    1
    39    33    41    1
    40    33    37    1
    41    41    42    1
    42    34    38    1
    43    35    39    1
    44    36    40    1
    45    42    43    1
@<TRIPOS>MOLECULE
GDU
 43 45 0 0 0
SMALL
GASTEIGER

@<TRIPOS>ATOM
      1 P          20.9371   71.3251   -2.1598 P.3     1  UNL1        0.2189
      2 O          20.9520   70.7066   -0.8157 O.2     1  UNL1       -0.5170
      3 O          21.5053   70.2748   -3.2401 O.3     1  UNL1       -0.4371
      4 O          19.4299   71.7312   -2.5475 O.3     1  UNL1       -0.3112
      5 C          18.6348   70.5527   -2.4074 C.3     1  UNL1        0.1811
      6 C          17.0123   70.4873   -5.6153 C.3     1  UNL1        0.2383
      7 C          16.9139   69.0287   -5.0996 C.3     1  UNL1        0.1895
      8 O          15.7313   68.3932   -5.5902 O.3     1  UNL1       -0.3779
      9 C          16.8363   69.2316   -3.5640 C.3     1  UNL1        0.1713
     10 C          17.4265   70.6365   -3.3418 C.3     1  UNL1        0.1764
     11 O          17.8357   71.1397   -4.6254 O.3     1  UNL1       -0.3308
     12 O          15.4790   69.1760   -3.1206 O.3     1  UNL1       -0.3794
     13 H          15.7304   67.4934   -5.2349 H       1  UNL1        0.2106
     14 H          15.1486   68.2944   -3.3403 H       1  UNL1        0.2105
     15 N          17.6549   70.5297   -6.9298 N.ar    1  UNL1       -0.2551
     16 C          16.9013   70.4804   -8.0424 C.ar    1  UNL1        0.3323
     17 N          17.4669   70.5213   -9.2632 N.ar    1  UNL1       -0.2743
     18 C          18.8054   70.6027   -9.3900 C.ar    1  UNL1        0.2626
     19 C          19.6122   70.6495   -8.2268 C.ar    1  UNL1        0.0795
     20 C          19.0188   70.6113   -7.0149 C.ar    1  UNL1        0.0869
     21 O          15.6925   70.4073   -7.9438 O.2     1  UNL1       -0.2464
     22 O          19.3186   70.6349  -10.4946 O.2     1  UNL1       -0.2670
     23 H          16.9074   70.4890  -10.0554 H       1  UNL1        0.1734
     24 O          21.8643   72.6414   -2.1541 O.3     1  UNL1       -0.2703
     25 P          22.9441   72.4465   -0.9767 P.3     1  UNL1        0.2208
     26 O          23.6846   71.1836   -1.1909 O.2     1  UNL1       -0.5170
     27 O          23.9772   73.6821   -0.9864 O.3     1  UNL1       -0.4371
     28 O          22.1878   72.3921    0.4428 O.3     1  UNL1       -0.2858
     29 C          22.4697   73.6227    1.1106 C.3     1  UNL1        0.2704
     30 C          22.9173   73.3332    2.5442 C.3     1  UNL1        0.1967
     31 C          21.8061   72.5670    3.2684 C.3     1  UNL1        0.1715
     32 C          20.5005   73.3598    3.1403 C.3     1  UNL1        0.1694
     33 C          20.2350   73.6458    1.6602 C.3     1  UNL1        0.1761
     34 O          24.1090   72.5453    2.5235 O.3     1  UNL1       -0.3775
     35 O          22.1466   72.4177    4.6484 O.3     1  UNL1       -0.3794
     36 O          20.6164   74.5902    3.8563 O.3     1  UNL1       -0.3794
     37 O          21.2970   74.4335    1.1241 O.3     1  UNL1       -0.3258
     38 H          24.7771   73.0622    2.0532 H       1  UNL1        0.2106
     39 H          22.9768   71.9258    4.6801 H       1  UNL1        0.2105
     40 H          20.7885   74.3619    4.7791 H       1  UNL1        0.2105
     41 C          18.9153   74.4077    1.5185 C.3     1  UNL1        0.1693
     42 O          19.1565   75.8080    1.6667 O.3     1  UNL1       -0.3794
     43 H          18.3022   76.2509    1.5702 H       1  UNL1        0.2105
@<TRIPOS>BOND
     1    15    16   ar
     2    15    20   ar
     3    15     6    1
     4    16    17   ar
     5    16    21    2
     6    17    18   ar
     7    17    23    1
     8    18    19   ar
     9    18    22    2
    10    19    20   ar
    11     6     7    1
    12     6    11    1
    13     7     8    1
    14     7     9    1
    15     8    13    1
    16     9    10    1
    17     9    12    1
    18    10    11    1
    19    10     5    1
    20    12    14    1
    21     5     4    1
    22     4     1    1
    23     1     2    2
    24     1     3    1
    25     1    24    1
    26    24    25    1
    27    25    26    2
    28    25    27    1
    29    25    28    1
    30    28    29    1
    31    29    30    1
    32    29    37    1
    33    30    31    1
    34    30    34    1
    35    31    32    1
    36    31    35    1
    37    32    33    1
    38    32    36    1
    39    33    41    1
    40    33    37    1
    41    41    42    1
    42    34    38    1
    43    35    39    1
    44    36    40    1
    45    42    43    1
@<TRIPOS>MOLECULE
GDU
 43 45 0 0 0
SMALL
GASTEIGER

@<TRIPOS>ATOM
      1 P          20.8319   71.3447   -1.9635 P.3     1  UNL1        0.2189
      2 O          20.7641   70.6444   -0.6618 O.2     1  UNL1       -0.5170
      3 O          21.5358   70.3884   -3.0512 O.3     1  UNL1       -0.4371
      4 O          19.3448   71.7116   -2.4540 O.3     1  UNL1       -0.3112
      5 C          18.5766   70.5095   -2.3810 C.3     1  UNL1        0.1811
      6 C          16.9838   70.4870   -5.6043 C.3     1  UNL1        0.2383
      7 C          16.8720   69.0238   -5.1048 C.3     1  UNL1        0.1895
      8 O          15.6903   68.4004   -5.6130 O.3     1  UNL1       -0.3779
      9 C          16.7813   69.2111   -3.5680 C.3     1  UNL1        0.1713
     10 C          17.3776   70.6101   -3.3256 C.3     1  UNL1        0.1764
     11 O          17.8016   71.1242   -4.6000 O.3     1  UNL1       -0.3308
     12 O          15.4196   69.1589   -3.1378 O.3     1  UNL1       -0.3794
     13 H          15.6809   67.4970   -5.2672 H       1  UNL1        0.2106
     14 H          15.0861   68.2816   -3.3697 H       1  UNL1        0.2105
     15 N          17.6389   70.5392   -6.9123 N.ar    1  UNL1       -0.2551
     16 C          16.8979   70.4713   -8.0324 C.ar    1  UNL1        0.3323
     17 N          17.4751   70.5207   -9.2474 N.ar    1  UNL1       -0.2743
     18 C          18.8128   70.6296   -9.3608 C.ar    1  UNL1        0.2626
     19 C          19.6065   70.6964   -8.1895 C.ar    1  UNL1        0.0795
     20 C          19.0016   70.6490   -6.9836 C.ar    1  UNL1        0.0869
     21 O          15.6900   70.3734   -7.9460 O.2     1  UNL1       -0.2464
     22 O          19.3366   70.6696  -10.4602 O.2     1  UNL1       -0.2670
     23 H          16.9246   70.4747  -10.0453 H       1  UNL1        0.1734
     24 O          21.6933   72.6952   -1.8010 O.3     1  UNL1       -0.2703
     25 P          21.1453   73.4428   -0.4854 P.3     1  UNL1        0.2208
     26 O          21.3185   74.9040   -0.6405 O.2     1  UNL1       -0.5170
     27 O          19.5826   73.1060   -0.2888 O.3     1  UNL1       -0.4371
     28 O          21.9680   72.9375    0.8022 O.3     1  UNL1       -0.2858
     29 C          23.3466   73.2097    0.5468 C.3     1  UNL1        0.2704
     30 C          24.1597   71.9260    0.7209 C.3     1  UNL1        0.1967
     31 C          23.9669   71.4033    2.1477 C.3     1  UNL1        0.1715
     32 C          24.3058   72.5286    3.1319 C.3     1  UNL1        0.1694
     33 C          23.4794   73.7669    2.7758 C.3     1  UNL1        0.1761
     34 O          23.7105   70.9443   -0.2149 O.3     1  UNL1       -0.3775
     35 O          24.8332   70.2890    2.3720 O.3     1  UNL1       -0.3794
     36 O          25.6979   72.8361    3.0451 O.3     1  UNL1       -0.3794
     37 O          23.8097   74.2035    1.4582 O.3     1  UNL1       -0.3258
     38 H          23.8437   71.3180   -1.0967 H       1  UNL1        0.2106
     39 H          24.5930   69.6132    1.7256 H       1  UNL1        0.2105
     40 H          26.1775   72.0285    3.2711 H       1  UNL1        0.2105
     41 C          23.7850   74.8861    3.7738 C.3     1  UNL1        0.1693
     42 O          24.4181   74.3333    4.9290 O.3     1  UNL1       -0.3794
     43 H          24.5940   75.0695    5.5310 H       1  UNL1        0.2105
@<TRIPOS>BOND
     1    15    16   ar
     2    15    20   ar
     3    15     6    1
     4    16    17   ar
     5    16    21    2
     6    17    18   ar
     7    17    23    1
     8    18    19   ar
     9    18    22    2
    10    19    20   ar
    11     6     7    1
    12     6    11    1
    13     7     8    1
    14     7     9    1
    15     8    13    1
    16     9    10    1
    17     9    12    1
    18    10    11    1
    19    10     5    1
    20    12    14    1
    21     5     4    1
    22     4     1    1
    23     1     2    2
    24     1     3    1
    25     1    24    1
    26    24    25    1
    27    25    26    2
    28    25    27    1
    29    25    28    1
    30    28    29    1
    31    29    30    1
    32    29    37    1
    33    30    31    1
    34    30    34    1
    35    31    32    1
    36    31    35    1
    37    32    33    1
    38    32    36    1
    39    33    41    1
    40    33    37    1
    41    41    42    1
    42    34    38    1
    43    35    39    1
    44    36    40    1
    45    42    43    1
@<TRIPOS>MOLECULE
GDU
 43 45 0 0 0
SMALL
GASTEIGER

@<TRIPOS>ATOM
      1 P          23.0210   71.7966   -3.4693 P.3     1  UNL1        0.2189
      2 O          23.4482   72.6953   -4.5644 O.2     1  UNL1       -0.5170
      3 O          24.2470   70.8402   -3.0509 O.3     1  UNL1       -0.4371
      4 O          22.5678   72.6745   -2.2000 O.3     1  UNL1       -0.3112
      5 C          22.5269   71.7903   -1.0788 C.3     1  UNL1        0.1811
      6 C          24.2652   73.0733    1.7951 C.3     1  UNL1        0.2383
      7 C          24.4295   74.1750    0.7171 C.3     1  UNL1        0.1895
      8 O          24.5127   75.4689    1.3190 O.3     1  UNL1       -0.3779
      9 C          23.1194   74.0282   -0.0998 C.3     1  UNL1        0.1713
     10 C          22.6404   72.5988    0.2148 C.3     1  UNL1        0.1764
     11 O          23.6178   71.9982    1.0821 O.3     1  UNL1       -0.3308
     12 O          22.1541   74.9917    0.3266 O.3     1  UNL1       -0.3794
     13 H          24.6137   76.1059    0.5979 H       1  UNL1        0.2106
     14 H          22.5358   75.8639    0.1582 H       1  UNL1        0.2105
     15 N          25.5704   72.6445    2.3006 N.ar    1  UNL1       -0.2551
     16 C          25.9989   71.3922    2.0632 C.ar    1  UNL1        0.3323
     17 N          27.1964   70.9740    2.5138 N.ar    1  UNL1       -0.2743
     18 C          27.9845   71.8053    3.2223 C.ar    1  UNL1        0.2626
     19 C          27.5436   73.1255    3.4850 C.ar    1  UNL1        0.0795
     20 C          26.3402   73.5204    3.0178 C.ar    1  UNL1        0.0869
     21 O          25.2992   70.6311    1.4251 O.2     1  UNL1       -0.2464
     22 O          29.0665   71.4261    3.6346 O.2     1  UNL1       -0.2670
     23 H          27.4916   70.0681    2.3294 H       1  UNL1        0.1734
     24 O          21.7844   70.8943   -3.9684 O.3     1  UNL1       -0.2703
     25 P          21.0321   71.7296   -5.1201 P.3     1  UNL1        0.2208
     26 O          20.5026   72.9882   -4.5504 O.2     1  UNL1       -0.5170
     27 O          22.0726   72.0717   -6.3010 O.3     1  UNL1       -0.4371
     28 O          19.8181   70.8550   -5.7128 O.3     1  UNL1       -0.2858
     29 C          18.8047   71.7749   -6.1209 C.3     1  UNL1        0.2704
     30 C          17.4327   71.2335   -5.7160 C.3     1  UNL1        0.1967
     31 C          17.2210   69.8676   -6.3762 C.3     1  UNL1        0.1715
     32 C          17.4454   70.0128   -7.8856 C.3     1  UNL1        0.1694
     33 C          18.8184   70.6455   -8.1261 C.3     1  UNL1        0.1761
     34 O          17.3733   71.0944   -4.2953 O.3     1  UNL1       -0.3775
     35 O          15.8881   69.4157   -6.1279 O.3     1  UNL1       -0.3794
     36 O          16.4265   70.8447   -8.4423 O.3     1  UNL1       -0.3794
     37 O          18.8602   71.9437   -7.5355 O.3     1  UNL1       -0.3258
     38 H          17.5185   71.9747   -3.9225 H       1  UNL1        0.2106
     39 H          15.7887   69.3506   -5.1697 H       1  UNL1        0.2105
     40 H          15.5821   70.4112   -8.2625 H       1  UNL1        0.2105
     41 C          19.0670   70.7636   -9.6315 C.3     1  UNL1        0.1693
     42 O          18.1336   69.9407  -10.3335 O.3     1  UNL1       -0.3794
     43 H          18.3232   70.0440  -11.2762 H       1  UNL1        0.2105
@<TRIPOS>BOND
     1    15    16   ar
     2    15    20   ar
     3    15     6    1
     4    16    17   ar
     5    16    21    2
     6    17    18   ar
     7    17    23    1
     8    18    19   ar
     9    18    22    2
    10    19    20   ar
    11     6     7    1
    12     6    11    1
    13     7     8    1
    14     7     9    1
    15     8    13    1
    16     9    10    1
    17     9    12    1
    18    10    11    1
    19    10     5    1
    20    12    14    1
    21     5     4    1
    22     4     1    1
    23     1     2    2
    24     1     3    1
    25     1    24    1
    26    24    25    1
    27    25    26    2
    28    25    27    1
    29    25    28    1
    30    28    29    1
    31    29    30    1
    32    29    37    1
    33    30    31    1
    34    30    34    1
    35    31    32    1
    36    31    35    1
    37    32    33    1
    38    32    36    1
    39    33    41    1
    40    33    37    1
    41    41    42    1
    42    34    38    1
    43    35    39    1
    44    36    40    1
    45    42    43    1
@<TRIPOS>MOLECULE
GDU
 43 45 0 0 0
SMALL
GASTEIGER

@<TRIPOS>ATOM
      1 P          16.5340   69.7863   -2.6638 P.3     1  UNL1        0.2189
      2 O          17.4321   68.8650   -1.9329 O.2     1  UNL1       -0.5170
      3 O          16.0117   69.0717   -4.0090 O.3     1  UNL1       -0.4371
      4 O          15.2772   70.1620   -1.7331 O.3     1  UNL1       -0.3112
      5 C          15.0452   69.0410   -0.8787 C.3     1  UNL1        0.1811
      6 C          12.2036   68.0224    1.0745 C.3     1  UNL1        0.2383
      7 C          12.5169   69.4596    1.5635 C.3     1  UNL1        0.1895
      8 O          11.3248   70.1257    1.9860 O.3     1  UNL1       -0.3779
      9 C          13.0953   70.1191    0.2846 C.3     1  UNL1        0.1713
     10 C          13.5495   68.9272   -0.5784 C.3     1  UNL1        0.1764
     11 O          13.2920   67.7285    0.1731 O.3     1  UNL1       -0.3308
     12 O          12.0865   70.8761   -0.3871 O.3     1  UNL1       -0.3794
     13 H          11.5877   71.0100    2.2770 H       1  UNL1        0.2106
     14 H          11.8019   71.5684    0.2247 H       1  UNL1        0.2105
     15 N          12.1959   67.0833    2.1974 N.ar    1  UNL1       -0.2551
     16 C          13.3600   66.6395    2.7035 C.ar    1  UNL1        0.3323
     17 N          13.3808   65.7785    3.7380 N.ar    1  UNL1       -0.2743
     18 C          12.2288   65.3378    4.2792 C.ar    1  UNL1        0.2626
     19 C          10.9949   65.7923    3.7526 C.ar    1  UNL1        0.0795
     20 C          11.0028   66.6590    2.7176 C.ar    1  UNL1        0.0869
     21 O          14.4073   67.0285    2.2261 O.2     1  UNL1       -0.2464
     22 O          12.2466   64.5548    5.2125 O.2     1  UNL1       -0.2670
     23 H          14.2302   65.4719    4.0934 H       1  UNL1        0.1734
     24 O          17.3389   71.1269   -3.0476 O.3     1  UNL1       -0.2703
     25 P          18.4122   70.7199   -4.1757 P.3     1  UNL1        0.2208
     26 O          18.9241   69.3592   -3.9011 O.2     1  UNL1       -0.5170
     27 O          17.7052   70.7448   -5.6226 O.3     1  UNL1       -0.4371
     28 O          19.6337   71.7675   -4.1585 O.3     1  UNL1       -0.2858
     29 C          20.8281   71.0158   -4.3779 C.3     1  UNL1        0.2704
     30 C          21.7729   71.2029   -3.1898 C.3     1  UNL1        0.1967
     31 C          22.0923   72.6932   -3.0365 C.3     1  UNL1        0.1715
     32 C          22.6164   73.2224   -4.3763 C.3     1  UNL1        0.1694
     33 C          21.6058   72.8836   -5.4749 C.3     1  UNL1        0.1761
     34 O          21.1464   70.7213   -1.9996 O.3     1  UNL1       -0.3775
     35 O          23.0870   72.8696   -2.0257 O.3     1  UNL1       -0.3794
     36 O          23.8735   72.6124   -4.6722 O.3     1  UNL1       -0.3794
     37 O          21.4590   71.4677   -5.5739 O.3     1  UNL1       -0.3258
     38 H          20.9574   69.7840   -2.1434 H       1  UNL1        0.2106
     39 H          22.7201   72.5133   -1.2067 H       1  UNL1        0.2105
     40 H          24.4746   72.8472   -3.9533 H       1  UNL1        0.2105
     41 C          22.1034   73.4378   -6.8118 C.3     1  UNL1        0.1693
     42 O          21.1740   73.0989   -7.8425 O.3     1  UNL1       -0.3794
     43 H          21.5233   73.4662   -8.6662 H       1  UNL1        0.2105
@<TRIPOS>BOND
     1    15    16   ar
     2    15    20   ar
     3    15     6    1
     4    16    17   ar
     5    16    21    2
     6    17    18   ar
     7    17    23    1
     8    18    19   ar
     9    18    22    2
    10    19    20   ar
    11     6     7    1
    12     6    11    1
    13     7     8    1
    14     7     9    1
    15     8    13    1
    16     9    10    1
    17     9    12    1
    18    10    11    1
    19    10     5    1
    20    12    14    1
    21     5     4    1
    22     4     1    1
    23     1     2    2
    24     1     3    1
    25     1    24    1
    26    24    25    1
    27    25    26    2
    28    25    27    1
    29    25    28    1
    30    28    29    1
    31    29    30    1
    32    29    37    1
    33    30    31    1
    34    30    34    1
    35    31    32    1
    36    31    35    1
    37    32    33    1
    38    32    36    1
    39    33    41    1
    40    33    37    1
    41    41    42    1
    42    34    38    1
    43    35    39    1
    44    36    40    1
    45    42    43    1
@<TRIPOS>MOLECULE
GDU
 43 45 0 0 0
SMALL
GASTEIGER

@<TRIPOS>ATOM
      1 P          17.0134   69.3642   -2.9386 P.3     1  UNL1        0.2189
      2 O          17.7380   68.2532   -3.5945 O.2     1  UNL1       -0.5170
      3 O          15.9420   69.9872   -3.9668 O.3     1  UNL1       -0.4371
      4 O          16.2486   68.8117   -1.6361 O.3     1  UNL1       -0.3112
      5 C          15.3707   69.8507   -1.1999 C.3     1  UNL1        0.1811
      6 C          12.7080   68.1421    0.5083 C.3     1  UNL1        0.2383
      7 C          12.5013   69.6370    0.8624 C.3     1  UNL1        0.1895
      8 O          11.1159   69.9270    1.0619 O.3     1  UNL1       -0.3779
      9 C          13.0382   70.3487   -0.4066 C.3     1  UNL1        0.1713
     10 C          13.9503   69.2983   -1.0672 C.3     1  UNL1        0.1764
     11 O          13.9551   68.1374   -0.2185 O.3     1  UNL1       -0.3308
     12 O          11.9600   70.7020   -1.2753 O.3     1  UNL1       -0.3794
     13 H          11.0562   70.8680    1.2782 H       1  UNL1        0.2106
     14 H          11.3942   71.3138   -0.7850 H       1  UNL1        0.2105
     15 N          12.8158   67.3322    1.7230 N.ar    1  UNL1       -0.2551
     16 C          11.9297   66.3461    1.9478 C.ar    1  UNL1        0.3323
     17 N          12.0087   65.5846    3.0549 N.ar    1  UNL1       -0.2743
     18 C          12.9765   65.8063    3.9651 C.ar    1  UNL1        0.2626
     19 C          13.9134   66.8454    3.7443 C.ar    1  UNL1        0.0795
     20 C          13.8138   67.5913    2.6236 C.ar    1  UNL1        0.0869
     21 O          11.0514   66.1339    1.1356 O.2     1  UNL1       -0.2464
     22 O          13.0459   65.1206    4.9699 O.2     1  UNL1       -0.2670
     23 H          11.3632   64.8744    3.1990 H       1  UNL1        0.1734
     24 O          18.0629   70.5049   -2.5029 O.3     1  UNL1       -0.2703
     25 P          17.9839   71.6623   -3.6182 P.3     1  UNL1        0.2208
     26 O          16.7744   72.4837   -3.3916 O.2     1  UNL1       -0.5170
     27 O          19.2926   72.5956   -3.5163 O.3     1  UNL1       -0.4371
     28 O          17.9145   70.9955   -5.0813 O.3     1  UNL1       -0.2858
     29 C          17.9627   72.0644   -6.0272 C.3     1  UNL1        0.2704
     30 C          16.7356   71.9944   -6.9375 C.3     1  UNL1        0.1967
     31 C          16.7217   70.6397   -7.6524 C.3     1  UNL1        0.1715
     32 C          18.0688   70.4437   -8.3572 C.3     1  UNL1        0.1694
     33 C          19.1955   70.6295   -7.3379 C.3     1  UNL1        0.1761
     34 O          15.5495   72.1358   -6.1537 O.3     1  UNL1       -0.3775
     35 O          15.6656   70.6156   -8.6149 O.3     1  UNL1       -0.3794
     36 O          18.2035   71.4039   -9.4059 O.3     1  UNL1       -0.3794
     37 O          19.1510   71.9532   -6.8071 O.3     1  UNL1       -0.3258
     38 H          15.6045   72.9969   -5.7174 H       1  UNL1        0.2106
     39 H          14.8420   70.7541   -8.1302 H       1  UNL1        0.2105
     40 H          17.4721   71.2535  -10.0188 H       1  UNL1        0.2105
     41 C          20.5443   70.4020   -8.0241 C.3     1  UNL1        0.1693
     42 O          21.3194   71.6003   -7.9583 O.3     1  UNL1       -0.3794
     43 H          22.1595   71.4149   -8.4000 H       1  UNL1        0.2105
@<TRIPOS>BOND
     1    15    16   ar
     2    15    20   ar
     3    15     6    1
     4    16    17   ar
     5    16    21    2
     6    17    18   ar
     7    17    23    1
     8    18    19   ar
     9    18    22    2
    10    19    20   ar
    11     6     7    1
    12     6    11    1
    13     7     8    1
    14     7     9    1
    15     8    13    1
    16     9    10    1
    17     9    12    1
    18    10    11    1
    19    10     5    1
    20    12    14    1
    21     5     4    1
    22     4     1    1
    23     1     2    2
    24     1     3    1
    25     1    24    1
    26    24    25    1
    27    25    26    2
    28    25    27    1
    29    25    28    1
    30    28    29    1
    31    29    30    1
    32    29    37    1
    33    30    31    1
    34    30    34    1
    35    31    32    1
    36    31    35    1
    37    32    33    1
    38    32    36    1
    39    33    41    1
    40    33    37    1
    41    41    42    1
    42    34    38    1
    43    35    39    1
    44    36    40    1
    45    42    43    1
@<TRIPOS>MOLECULE
GDU
 43 45 0 0 0
SMALL
GASTEIGER

@<TRIPOS>ATOM
      1 P          22.3213   73.6479   -4.8251 P.3     1  UNL1        0.2189
      2 O          22.5256   74.8362   -5.6828 O.2     1  UNL1       -0.5170
      3 O          23.4462   72.5452   -5.1592 O.3     1  UNL1       -0.4371
      4 O          22.4324   74.0763   -3.2788 O.3     1  UNL1       -0.3112
      5 C          21.3521   73.4397   -2.5944 C.3     1  UNL1        0.1811
      6 C          23.1282   71.4954   -0.1464 C.3     1  UNL1        0.2383
      7 C          21.6828   71.5899    0.4058 C.3     1  UNL1        0.1895
      8 O          21.3504   70.4262    1.1663 O.3     1  UNL1       -0.3779
      9 C          20.8418   71.6591   -0.8955 C.3     1  UNL1        0.1713
     10 C          21.8435   72.1356   -1.9636 C.3     1  UNL1        0.1764
     11 O          23.1030   72.3556   -1.3053 O.3     1  UNL1       -0.3308
     12 O          20.3247   70.3684   -1.2253 O.3     1  UNL1       -0.3794
     13 H          20.4434   70.5477    1.4800 H       1  UNL1        0.2106
     14 H          19.7530   70.1003   -0.4931 H       1  UNL1        0.2105
     15 N          24.0924   71.9864    0.8395 N.ar    1  UNL1       -0.2551
     16 C          24.7510   71.1122    1.6208 C.ar    1  UNL1        0.3323
     17 N          25.6453   71.5372    2.5327 N.ar    1  UNL1       -0.2743
     18 C          25.8886   72.8532    2.6844 C.ar    1  UNL1        0.2626
     19 C          25.1981   73.7859    1.8723 C.ar    1  UNL1        0.0795
     20 C          24.3096   73.3324    0.9627 C.ar    1  UNL1        0.0869
     21 O          24.5424   69.9219    1.4951 O.2     1  UNL1       -0.2464
     22 O          26.6944   73.2392    3.5128 O.2     1  UNL1       -0.2670
     23 H          26.1146   70.8920    3.0852 H       1  UNL1        0.1734
     24 O          20.8628   73.0274   -5.1079 O.3     1  UNL1       -0.2703
     25 P          20.7799   72.7315   -6.6877 P.3     1  UNL1        0.2208
     26 O          21.2858   73.9034   -7.4359 O.2     1  UNL1       -0.5170
     27 O          21.6783   71.4420   -7.0398 O.3     1  UNL1       -0.4371
     28 O          19.2509   72.4481   -7.1022 O.3     1  UNL1       -0.2858
     29 C          19.1235   71.0366   -7.2785 C.3     1  UNL1        0.2704
     30 C          18.0447   70.7494   -8.3240 C.3     1  UNL1        0.1967
     31 C          16.7198   71.3573   -7.8532 C.3     1  UNL1        0.1715
     32 C          16.4162   70.8386   -6.4431 C.3     1  UNL1        0.1694
     33 C          17.6188   71.1211   -5.5392 C.3     1  UNL1        0.1761
     34 O          18.4223   71.3302   -9.5735 O.3     1  UNL1       -0.3775
     35 O          15.6714   70.9726   -8.7450 O.3     1  UNL1       -0.3794
     36 O          16.1704   69.4325   -6.4939 O.3     1  UNL1       -0.3794
     37 O          18.7665   70.4345   -6.0365 O.3     1  UNL1       -0.3258
     38 H          19.2626   70.9245   -9.8271 H       1  UNL1        0.2106
     39 H          15.9096   71.3083   -9.6184 H       1  UNL1        0.2105
     40 H          15.4112   69.3020   -7.0769 H       1  UNL1        0.2105
     41 C          17.3125   70.6376   -4.1199 C.3     1  UNL1        0.1693
     42 O          18.1406   71.3381   -3.1900 O.3     1  UNL1       -0.3794
     43 H          17.9164   71.0055   -2.3100 H       1  UNL1        0.2105
@<TRIPOS>BOND
     1    15    16   ar
     2    15    20   ar
     3    15     6    1
     4    16    17   ar
     5    16    21    2
     6    17    18   ar
     7    17    23    1
     8    18    19   ar
     9    18    22    2
    10    19    20   ar
    11     6     7    1
    12     6    11    1
    13     7     8    1
    14     7     9    1
    15     8    13    1
    16     9    10    1
    17     9    12    1
    18    10    11    1
    19    10     5    1
    20    12    14    1
    21     5     4    1
    22     4     1    1
    23     1     2    2
    24     1     3    1
    25     1    24    1
    26    24    25    1
    27    25    26    2
    28    25    27    1
    29    25    28    1
    30    28    29    1
    31    29    30    1
    32    29    37    1
    33    30    31    1
    34    30    34    1
    35    31    32    1
    36    31    35    1
    37    32    33    1
    38    32    36    1
    39    33    41    1
    40    33    37    1
    41    41    42    1
    42    34    38    1
    43    35    39    1
    44    36    40    1
    45    42    43    1
