@<TRIPOS>MOLECULE
*****
 43 45 0 0 0
SMALL
GASTEIGER

@<TRIPOS>ATOM
      1 P          22.5367   71.5179   -2.8985 P.3     1  UNL1        0.2189
      2 O          22.2272   73.0793   -2.6095 O.co2   1  UNL1       -0.4371
      3 O          23.9630   71.2084   -3.2468 O.2     1  UNL1       -0.5170
      4 O          21.4362   71.1030   -4.0096 O.3     1  UNL1       -0.3112
      5 C          20.5261   70.0609   -3.7036 C.3     1  UNL1        0.1811
      6 O          18.7838   71.3955   -4.6820 O.3     1  UNL1       -0.3308
      7 O          16.9704   70.2133   -2.6073 O.3     1  UNL1       -0.3794
      8 O          16.3577   68.7583   -4.8308 O.3     1  UNL1       -0.3779
      9 C          18.0540   69.6067   -3.3096 C.3     1  UNL1        0.1713
     10 C          17.6543   69.3128   -4.7405 C.3     1  UNL1        0.1895
     11 C          19.1415   70.6580   -3.4927 C.3     1  UNL1        0.1764
     12 C          17.7487   70.6865   -5.3825 C.3     1  UNL1        0.2383
     13 H          16.2634   69.5609   -2.4781 H       1  UNL1        0.2105
     14 H          16.3491   67.8852   -4.4085 H       1  UNL1        0.2106
     15 O          15.8809   70.3128   -7.4681 O.2     1  UNL1       -0.2464
     16 O          19.1759   70.4373  -10.6882 O.2     1  UNL1       -0.2670
     17 N          18.0909   70.6178   -6.7752 N.ar    1  UNL1       -0.2551
     18 N          17.5230   70.3753   -9.0698 N.ar    1  UNL1       -0.2743
     19 C          17.0772   70.4267   -7.7429 C.ar    1  UNL1        0.3323
     20 C          19.4189   70.7398   -7.1693 C.ar    1  UNL1        0.0869
     21 C          19.8277   70.6873   -8.4387 C.ar    1  UNL1        0.0795
     22 C          18.8316   70.4900   -9.5115 C.ar    1  UNL1        0.2626
     23 H          16.8345   70.2424   -9.7612 H       1  UNL1        0.1734
     24 O          21.9968   70.7869   -1.5617 O.3     1  UNL1       -0.2703
     25 P          21.4781   71.3934   -0.1559 P.3     1  UNL1        0.2208
     26 O          21.4720   70.1059    0.8239 O.co2   1  UNL1       -0.4371
     27 O          20.1625   72.1112   -0.2434 O.2     1  UNL1       -0.5170
     28 O          22.7023   72.3025    0.3732 O.3     1  UNL1       -0.2858
     29 O          22.1474   73.5431    2.3147 O.3     1  UNL1       -0.3258
     30 O          25.7338   75.3603    1.3731 O.3     1  UNL1       -0.3794
     31 O          25.5881   73.5986    3.6366 O.3     1  UNL1       -0.3794
     32 O          23.9140   74.5770   -0.7374 O.3     1  UNL1       -0.3775
     33 C          24.8125   74.2713    1.4763 C.3     1  UNL1        0.1715
     34 C          24.4422   74.0945    2.9502 C.3     1  UNL1        0.1694
     35 C          23.5711   74.5871    0.6441 C.3     1  UNL1        0.1967
     36 C          23.2619   73.1271    3.1126 C.3     1  UNL1        0.1761
     37 C          22.4404   73.5936    0.9171 C.3     1  UNL1        0.2704
     38 H          26.5246   75.1658    1.8989 H       1  UNL1        0.2105
     39 H          26.3263   74.2183    3.5257 H       1  UNL1        0.2105
     40 H          24.6306   75.2101   -0.8973 H       1  UNL1        0.2106
     41 O          23.1544   74.2506    5.2186 O.3     1  UNL1       -0.3794
     42 C          22.7743   73.0574    4.5581 C.3     1  UNL1        0.1693
     43 H          22.8504   74.2205    6.1397 H       1  UNL1        0.2105
@<TRIPOS>UNITY_ATOM_ATTR
2 1
charge -1
26 1
charge -1
@<TRIPOS>BOND
     1    25    28    1
     2    25    24    1
     3    25    26    1
     4    25    27    2
     5     1     4    1
     6     1    24    1
     7     1     2    1
     8     1     3    2
     9     6    11    1
    10     6    12    1
    11    29    36    1
    12    29    37    1
    13     7     9    1
    14     7    13    1
    15     8    10    1
    16     8    14    1
    17    28    37    1
    18     4     5    1
    19    30    33    1
    20    30    38    1
    21    31    34    1
    22    31    39    1
    23    32    35    1
    24    32    40    1
    25    41    42    1
    26    41    43    1
    27    15    19    2
    28    16    22    2
    29    17    12    1
    30    17    19   ar
    31    17    20   ar
    32    18    19   ar
    33    18    22   ar
    34    18    23    1
    35     9    10    1
    36     9    11    1
    37    10    12    1
    38    11     5    1
    39    33    34    1
    40    33    35    1
    41    34    36    1
    42    35    37    1
    43    36    42    1
    44    20    21   ar
    45    21    22   ar
@<TRIPOS>MOLECULE
*****
 43 45 0 0 0
SMALL
GASTEIGER

@<TRIPOS>ATOM
      1 P          22.9707   71.3509   -2.3653 P.3     1  UNL1        0.2189
      2 O          22.5634   72.8608   -2.7797 O.co2   1  UNL1       -0.4371
      3 O          24.2225   70.8326   -3.0102 O.2     1  UNL1       -0.5170
      4 O          21.6277   70.4945   -2.6491 O.3     1  UNL1       -0.3112
      5 C          20.9520   70.6846   -3.8801 C.3     1  UNL1        0.1811
      6 O          18.9794   71.7013   -4.8014 O.3     1  UNL1       -0.3308
      7 O          17.4965   70.4598   -2.5100 O.3     1  UNL1       -0.3794
      8 O          16.9281   68.7682   -4.5721 O.3     1  UNL1       -0.3779
      9 C          18.5989   69.9459   -3.2556 C.3     1  UNL1        0.1713
     10 C          18.1408   69.4916   -4.6258 C.3     1  UNL1        0.1895
     11 C          19.5181   71.1117   -3.5978 C.3     1  UNL1        0.1764
     12 C          18.0021   70.8115   -5.3652 C.3     1  UNL1        0.2383
     13 H          16.8955   69.7334   -2.2796 H       1  UNL1        0.2105
     14 H          17.0682   67.9371   -4.0921 H       1  UNL1        0.2106
     15 O          16.0172   70.2182   -7.2852 O.2     1  UNL1       -0.2464
     16 O          19.0667   70.3260  -10.7393 O.2     1  UNL1       -0.2670
     17 N          18.2494   70.6791   -6.7733 N.ar    1  UNL1       -0.2551
     18 N          17.5372   70.2725   -9.0035 N.ar    1  UNL1       -0.2743
     19 C          17.1831   70.3784   -7.6525 C.ar    1  UNL1        0.3323
     20 C          19.5376   70.8472   -7.2694 C.ar    1  UNL1        0.0869
     21 C          19.8590   70.7417   -8.5605 C.ar    1  UNL1        0.0795
     22 C          18.8031   70.4296   -9.5453 C.ar    1  UNL1        0.2626
     23 H          16.8107   70.0632   -9.6345 H       1  UNL1        0.1734
     24 O          23.0241   71.4189   -0.7512 O.3     1  UNL1       -0.2703
     25 P          21.8506   71.6204    0.3422 P.3     1  UNL1        0.2208
     26 O          21.7389   70.1646    1.0391 O.co2   1  UNL1       -0.4371
     27 O          20.5604   72.1349   -0.2276 O.2     1  UNL1       -0.5170
     28 O          22.5055   72.5653    1.4749 O.3     1  UNL1       -0.2858
     29 O          24.2521   72.2173    3.0386 O.3     1  UNL1       -0.3258
     30 O          21.6271   74.3159    5.4377 O.3     1  UNL1       -0.3794
     31 O          24.0260   75.5911    4.5065 O.3     1  UNL1       -0.3794
     32 O          20.6150   72.3780    3.5403 O.3     1  UNL1       -0.3775
     33 C          22.2871   73.9748    4.2156 C.3     1  UNL1        0.1715
     34 C          23.7899   74.1895    4.4061 C.3     1  UNL1        0.1694
     35 C          21.9909   72.5145    3.8791 C.3     1  UNL1        0.1967
     36 C          24.5868   73.5958    3.2367 C.3     1  UNL1        0.1761
     37 C          22.8714   72.0088    2.7349 C.3     1  UNL1        0.2704
     38 H          21.8106   75.2421    5.6568 H       1  UNL1        0.2105
     39 H          23.5166   75.9537    5.2483 H       1  UNL1        0.2105
     40 H          20.0682   72.7012    4.2727 H       1  UNL1        0.2106
     41 O          26.6947   72.5327    2.8686 O.3     1  UNL1       -0.3794
     42 C          26.0930   73.6584    3.4809 C.3     1  UNL1        0.1693
     43 H          27.6536   72.5594    3.0156 H       1  UNL1        0.2105
@<TRIPOS>UNITY_ATOM_ATTR
2 1
charge -1
26 1
charge -1
@<TRIPOS>BOND
     1    25    28    1
     2    25    24    1
     3    25    26    1
     4    25    27    2
     5     1     4    1
     6     1    24    1
     7     1     2    1
     8     1     3    2
     9     6    11    1
    10     6    12    1
    11    29    36    1
    12    29    37    1
    13     7     9    1
    14     7    13    1
    15     8    10    1
    16     8    14    1
    17    28    37    1
    18     4     5    1
    19    30    33    1
    20    30    38    1
    21    31    34    1
    22    31    39    1
    23    32    35    1
    24    32    40    1
    25    41    42    1
    26    41    43    1
    27    15    19    2
    28    16    22    2
    29    17    12    1
    30    17    19   ar
    31    17    20   ar
    32    18    19   ar
    33    18    22   ar
    34    18    23    1
    35     9    10    1
    36     9    11    1
    37    10    12    1
    38    11     5    1
    39    33    34    1
    40    33    35    1
    41    34    36    1
    42    35    37    1
    43    36    42    1
    44    20    21   ar
    45    21    22   ar
@<TRIPOS>MOLECULE
*****
 43 45 0 0 0
SMALL
GASTEIGER

@<TRIPOS>ATOM
      1 P          22.1429   71.6507   -2.7196 P.3     1  UNL1        0.2189
      2 O          22.2741   73.2230   -2.3619 O.co2   1  UNL1       -0.4371
      3 O          23.3970   71.0124   -3.2403 O.2     1  UNL1       -0.5170
      4 O          20.8592   71.5817   -3.7021 O.3     1  UNL1       -0.3112
      5 C          19.9867   70.4701   -3.5975 C.3     1  UNL1        0.1811
      6 O          18.2617   71.6317   -4.8012 O.3     1  UNL1       -0.3308
      7 O          16.3374   70.4014   -2.8584 O.3     1  UNL1       -0.3794
      8 O          16.0530   68.8178   -5.0602 O.3     1  UNL1       -0.3779
      9 C          17.5254   69.8496   -3.4235 C.3     1  UNL1        0.1713
     10 C          17.2921   69.4702   -4.8710 C.3     1  UNL1        0.1895
     11 C          18.5496   70.9706   -3.5496 C.3     1  UNL1        0.1764
     12 C          17.3538   70.8205   -5.5645 C.3     1  UNL1        0.2383
     13 H          15.6685   69.7040   -2.7678 H       1  UNL1        0.2105
     14 H          16.0635   67.9640   -4.6002 H       1  UNL1        0.2106
     15 O          15.7212   70.3084   -7.8118 O.2     1  UNL1       -0.2464
     16 O          19.3180   70.4632  -10.6893 O.2     1  UNL1       -0.2670
     17 N          17.8373   70.7222   -6.9128 N.ar    1  UNL1       -0.2551
     18 N          17.5134   70.3861   -9.2427 N.ar    1  UNL1       -0.2743
     19 C          16.9342   70.4610   -7.9696 C.ar    1  UNL1        0.3323
     20 C          19.1930   70.8844   -7.1764 C.ar    1  UNL1        0.0869
     21 C          19.7297   70.8087   -8.3961 C.ar    1  UNL1        0.0795
     22 C          18.8549   70.5388   -9.5554 C.ar    1  UNL1        0.2626
     23 H          16.9036   70.2046   -9.9944 H       1  UNL1        0.1734
     24 O          21.5830   71.0107   -1.3449 O.3     1  UNL1       -0.2703
     25 P          22.2017   70.9961    0.1485 P.3     1  UNL1        0.2208
     26 O          23.7925   71.1415   -0.1075 O.co2   1  UNL1       -0.4371
     27 O          21.8127   69.7971    0.9640 O.2     1  UNL1       -0.5170
     28 O          21.7606   72.4111    0.7872 O.3     1  UNL1       -0.2858
     29 O          22.2859   74.5431    1.6791 O.3     1  UNL1       -0.3258
     30 O          22.4286   72.3199    5.1559 O.3     1  UNL1       -0.3794
     31 O          20.2350   74.1198    4.7129 O.3     1  UNL1       -0.3794
     32 O          23.4376   71.2010    2.6842 O.3     1  UNL1       -0.3775
     33 C          21.9449   72.6815    3.8595 C.3     1  UNL1        0.1715
     34 C          21.4229   74.1181    3.9259 C.3     1  UNL1        0.1694
     35 C          23.0874   72.5706    2.8517 C.3     1  UNL1        0.1967
     36 C          21.1349   74.6683    2.5226 C.3     1  UNL1        0.1761
     37 C          22.7140   73.1910    1.5041 C.3     1  UNL1        0.2704
     38 H          21.7079   72.3877    5.8005 H       1  UNL1        0.2105
     39 H          20.4304   73.7697    5.5963 H       1  UNL1        0.2105
     40 H          23.6722   70.8199    3.5442 H       1  UNL1        0.2106
     41 O          21.3559   76.7847    1.4358 O.3     1  UNL1       -0.3794
     42 C          20.7639   76.1493    2.5540 C.3     1  UNL1        0.1693
     43 H          21.1281   77.7279    1.4425 H       1  UNL1        0.2105
@<TRIPOS>UNITY_ATOM_ATTR
2 1
charge -1
26 1
charge -1
@<TRIPOS>BOND
     1    25    28    1
     2    25    24    1
     3    25    26    1
     4    25    27    2
     5     1     4    1
     6     1    24    1
     7     1     2    1
     8     1     3    2
     9     6    11    1
    10     6    12    1
    11    29    36    1
    12    29    37    1
    13     7     9    1
    14     7    13    1
    15     8    10    1
    16     8    14    1
    17    28    37    1
    18     4     5    1
    19    30    33    1
    20    30    38    1
    21    31    34    1
    22    31    39    1
    23    32    35    1
    24    32    40    1
    25    41    42    1
    26    41    43    1
    27    15    19    2
    28    16    22    2
    29    17    12    1
    30    17    19   ar
    31    17    20   ar
    32    18    19   ar
    33    18    22   ar
    34    18    23    1
    35     9    10    1
    36     9    11    1
    37    10    12    1
    38    11     5    1
    39    33    34    1
    40    33    35    1
    41    34    36    1
    42    35    37    1
    43    36    42    1
    44    20    21   ar
    45    21    22   ar
@<TRIPOS>MOLECULE
*****
 43 45 0 0 0
SMALL
GASTEIGER

@<TRIPOS>ATOM
      1 P          22.8502   71.4646   -2.7400 P.3     1  UNL1        0.2189
      2 O          22.9171   73.0507   -2.4282 O.co2   1  UNL1       -0.4371
      3 O          24.1667   70.8292   -3.0787 O.2     1  UNL1       -0.5170
      4 O          21.6982   71.3389   -3.8691 O.3     1  UNL1       -0.3112
      5 C          21.6423   72.3200   -4.8900 C.3     1  UNL1        0.1811
      6 O          20.5868   70.4656   -5.9949 O.3     1  UNL1       -0.3308
      7 O          20.9378   72.0206   -8.5345 O.3     1  UNL1       -0.3794
      8 O          18.3137   72.4526   -7.9308 O.3     1  UNL1       -0.3779
      9 C          20.6390   72.4924   -7.2217 C.3     1  UNL1        0.1713
     10 C          19.2007   72.1796   -6.8652 C.3     1  UNL1        0.1895
     11 C          21.4077   71.6311   -6.2274 C.3     1  UNL1        0.1764
     12 C          19.2739   70.6997   -6.5299 C.3     1  UNL1        0.2383
     13 H          20.4584   72.5557   -9.1871 H       1  UNL1        0.2105
     14 H          18.3023   73.4065   -8.1059 H       1  UNL1        0.2106
     15 O          16.6409   69.8832   -7.1453 O.2     1  UNL1       -0.2464
     16 O          15.6091   69.2301   -2.7012 O.2     1  UNL1       -0.2670
     17 N          18.2962   70.3104   -5.5532 N.ar    1  UNL1       -0.2551
     18 N          16.1293   69.5585   -4.9320 N.ar    1  UNL1       -0.2743
     19 C          17.0019   69.9180   -5.9671 C.ar    1  UNL1        0.3323
     20 C          18.6246   70.3198   -4.2020 C.ar    1  UNL1        0.0869
     21 C          17.7806   69.9753   -3.2272 C.ar    1  UNL1        0.0795
     22 C          16.4085   69.5527   -3.5746 C.ar    1  UNL1        0.2626
     23 H          15.2219   69.2820   -5.1966 H       1  UNL1        0.1734
     24 O          22.1333   70.8648   -1.4212 O.3     1  UNL1       -0.2703
     25 P          22.4236   71.1111    0.1498 P.3     1  UNL1        0.2208
     26 O          24.0390   71.0868    0.2368 O.co2   1  UNL1       -0.4371
     27 O          21.7396   70.1348    1.0624 O.2     1  UNL1       -0.5170
     28 O          22.0250   72.6546    0.4019 O.3     1  UNL1       -0.2858
     29 O          22.4942   73.0625    2.6888 O.3     1  UNL1       -0.3258
     30 O          21.0713   76.7920    1.6317 O.3     1  UNL1       -0.3794
     31 O          23.8781   76.4317    2.1214 O.3     1  UNL1       -0.3794
     32 O          19.8417   74.4127    0.5331 O.3     1  UNL1       -0.3775
     33 C          21.7622   75.5560    1.4308 C.3     1  UNL1        0.1715
     34 C          22.8893   75.4637    2.4612 C.3     1  UNL1        0.1694
     35 C          20.7787   74.4003    1.6048 C.3     1  UNL1        0.1967
     36 C          23.5040   74.0578    2.4854 C.3     1  UNL1        0.1761
     37 C          21.4973   73.0512    1.6650 C.3     1  UNL1        0.2704
     38 H          21.6901   77.5300    1.5222 H       1  UNL1        0.2105
     39 H          23.4769   77.3150    2.1092 H       1  UNL1        0.2105
     40 H          19.3932   75.2718    0.5059 H       1  UNL1        0.2106
     41 O          23.8268   73.8820    4.8463 O.3     1  UNL1       -0.3794
     42 C          24.5215   73.8977    3.6129 C.3     1  UNL1        0.1693
     43 H          24.4617   73.7804    5.5731 H       1  UNL1        0.2105
@<TRIPOS>UNITY_ATOM_ATTR
2 1
charge -1
26 1
charge -1
@<TRIPOS>BOND
     1    25    28    1
     2    25    24    1
     3    25    26    1
     4    25    27    2
     5     1     4    1
     6     1    24    1
     7     1     2    1
     8     1     3    2
     9     6    11    1
    10     6    12    1
    11    29    36    1
    12    29    37    1
    13     7     9    1
    14     7    13    1
    15     8    10    1
    16     8    14    1
    17    28    37    1
    18     4     5    1
    19    30    33    1
    20    30    38    1
    21    31    34    1
    22    31    39    1
    23    32    35    1
    24    32    40    1
    25    41    42    1
    26    41    43    1
    27    15    19    2
    28    16    22    2
    29    17    12    1
    30    17    19   ar
    31    17    20   ar
    32    18    19   ar
    33    18    22   ar
    34    18    23    1
    35     9    10    1
    36     9    11    1
    37    10    12    1
    38    11     5    1
    39    33    34    1
    40    33    35    1
    41    34    36    1
    42    35    37    1
    43    36    42    1
    44    20    21   ar
    45    21    22   ar
@<TRIPOS>MOLECULE
*****
 43 45 0 0 0
SMALL
GASTEIGER

@<TRIPOS>ATOM
      1 P          23.4770   73.5624   -4.1506 P.3     1  UNL1        0.2189
      2 O          22.6672   74.9429   -4.3864 O.co2   1  UNL1       -0.4371
      3 O          24.9681   73.7083   -4.0691 O.2     1  UNL1       -0.5170
      4 O          22.9293   72.5864   -5.3190 O.3     1  UNL1       -0.3112
      5 C          21.5313   72.3834   -5.4305 C.3     1  UNL1        0.1811
      6 O          20.5139   70.3722   -6.2634 O.3     1  UNL1       -0.3308
      7 O          20.6064   71.6675   -8.9661 O.3     1  UNL1       -0.3794
      8 O          18.0074   72.0275   -8.2230 O.3     1  UNL1       -0.3779
      9 C          20.3682   72.2589   -7.6899 C.3     1  UNL1        0.1713
     10 C          18.9770   71.9132   -7.2015 C.3     1  UNL1        0.1895
     11 C          21.2492   71.5468   -6.6709 C.3     1  UNL1        0.1764
     12 C          19.1572   70.4822   -6.7240 C.3     1  UNL1        0.2383
     13 H          20.0550   72.1061   -9.6335 H       1  UNL1        0.2105
     14 H          17.9295   72.9560   -8.4926 H       1  UNL1        0.2106
     15 O          16.4563   69.7252   -7.0553 O.2     1  UNL1       -0.2464
     16 O          15.8482   69.2271   -2.5140 O.2     1  UNL1       -0.2670
     17 N          18.2701   70.1489   -5.6455 N.ar    1  UNL1       -0.2551
     18 N          16.1558   69.4776   -4.7938 N.ar    1  UNL1       -0.2743
     19 C          16.9317   69.7826   -5.9194 C.ar    1  UNL1        0.3323
     20 C          18.7295   70.1867   -4.3334 C.ar    1  UNL1        0.0869
     21 C          17.9764   69.8942   -3.2711 C.ar    1  UNL1        0.0795
     22 C          16.5663   69.5019   -3.4704 C.ar    1  UNL1        0.2626
     23 H          15.2199   69.2201   -4.9603 H       1  UNL1        0.1734
     24 O          22.7864   72.9587   -2.8195 O.3     1  UNL1       -0.2703
     25 P          22.8930   71.4968   -2.1381 P.3     1  UNL1        0.2208
     26 O          24.2011   70.8543   -2.8407 O.co2   1  UNL1       -0.4371
     27 O          21.6495   70.6655   -2.2672 O.2     1  UNL1       -0.5170
     28 O          23.3484   71.7872   -0.6172 O.3     1  UNL1       -0.2858
     29 O          24.5450   70.6513    1.0841 O.3     1  UNL1       -0.3258
     30 O          21.2658   71.8640    3.2811 O.3     1  UNL1       -0.3794
     31 O          23.8031   73.1436    3.6969 O.3     1  UNL1       -0.3794
     32 O          20.9247   70.9814    0.5454 O.3     1  UNL1       -0.3775
     33 C          22.2739   71.9793    2.2732 C.3     1  UNL1        0.1715
     34 C          23.6422   71.9369    2.9564 C.3     1  UNL1        0.1694
     35 C          22.1290   70.8214    1.2875 C.3     1  UNL1        0.1967
     36 C          24.7707   71.7869    1.9274 C.3     1  UNL1        0.1761
     37 C          23.3273   70.7322    0.3408 C.3     1  UNL1        0.2704
     38 H          21.3519   72.5965    3.9100 H       1  UNL1        0.2105
     39 H          23.0839   73.2264    4.3428 H       1  UNL1        0.2105
     40 H          20.1737   71.0363    1.1559 H       1  UNL1        0.2106
     41 O          26.6255   72.8478    2.9966 O.3     1  UNL1       -0.3794
     42 C          26.1295   71.5843    2.5942 C.3     1  UNL1        0.1693
     43 H          27.4898   72.7343    3.4230 H       1  UNL1        0.2105
@<TRIPOS>UNITY_ATOM_ATTR
2 1
charge -1
26 1
charge -1
@<TRIPOS>BOND
     1    25    28    1
     2    25    24    1
     3    25    26    1
     4    25    27    2
     5     1     4    1
     6     1    24    1
     7     1     2    1
     8     1     3    2
     9     6    11    1
    10     6    12    1
    11    29    36    1
    12    29    37    1
    13     7     9    1
    14     7    13    1
    15     8    10    1
    16     8    14    1
    17    28    37    1
    18     4     5    1
    19    30    33    1
    20    30    38    1
    21    31    34    1
    22    31    39    1
    23    32    35    1
    24    32    40    1
    25    41    42    1
    26    41    43    1
    27    15    19    2
    28    16    22    2
    29    17    12    1
    30    17    19   ar
    31    17    20   ar
    32    18    19   ar
    33    18    22   ar
    34    18    23    1
    35     9    10    1
    36     9    11    1
    37    10    12    1
    38    11     5    1
    39    33    34    1
    40    33    35    1
    41    34    36    1
    42    35    37    1
    43    36    42    1
    44    20    21   ar
    45    21    22   ar
@<TRIPOS>MOLECULE
*****
 43 45 0 0 0
SMALL
GASTEIGER

@<TRIPOS>ATOM
      1 P          23.5162   72.2389   -3.3898 P.3     1  UNL1        0.2189
      2 O          24.1993   73.0269   -4.6266 O.co2   1  UNL1       -0.4371
      3 O          24.1132   70.8961   -3.0867 O.2     1  UNL1       -0.5170
      4 O          21.9391   72.2413   -3.7512 O.3     1  UNL1       -0.3112
      5 C          21.2356   71.0118   -3.7161 C.3     1  UNL1        0.1811
      6 O          19.1205   71.8001   -4.5402 O.3     1  UNL1       -0.3308
      7 O          17.8977   70.4267   -2.1718 O.3     1  UNL1       -0.3794
      8 O          17.4143   68.6644   -4.1959 O.3     1  UNL1       -0.3779
      9 C          19.0108   70.0283   -2.9703 C.3     1  UNL1        0.1713
     10 C          18.5370   69.5143   -4.3138 C.3     1  UNL1        0.1895
     11 C          19.7796   71.2837   -3.3632 C.3     1  UNL1        0.1764
     12 C          18.2188   70.8044   -5.0503 C.3     1  UNL1        0.2383
     13 H          17.3915   69.6416   -1.9084 H       1  UNL1        0.2105
     14 H          17.6677   67.8578   -3.7204 H       1  UNL1        0.2106
     15 O          16.3094   69.7274   -6.8314 O.2     1  UNL1       -0.2464
     16 O          19.0554   70.4002  -10.4712 O.2     1  UNL1       -0.2670
     17 N          18.4084   70.6864   -6.4686 N.ar    1  UNL1       -0.2551
     18 N          17.6782   70.0634   -8.6423 N.ar    1  UNL1       -0.2743
     19 C          17.3873   70.1301   -7.2738 C.ar    1  UNL1        0.3323
     20 C          19.5962   71.1201   -7.0474 C.ar    1  UNL1        0.0869
     21 C          19.8586   71.0483   -8.3540 C.ar    1  UNL1        0.0795
     22 C          18.8441   70.4799   -9.2650 C.ar    1  UNL1        0.2626
     23 H          16.9816   69.6791   -9.2227 H       1  UNL1        0.1734
     24 O          23.6134   73.3068   -2.1803 O.3     1  UNL1       -0.2703
     25 P          23.0174   73.2667   -0.6782 P.3     1  UNL1        0.2208
     26 O          22.5570   71.7256   -0.5028 O.co2   1  UNL1       -0.4371
     27 O          21.9315   74.2707   -0.4201 O.2     1  UNL1       -0.5170
     28 O          24.3089   73.4176    0.2779 O.3     1  UNL1       -0.2858
     29 O          23.9557   73.2000    2.6113 O.3     1  UNL1       -0.3258
     30 O          21.7102   69.9915    1.3019 O.3     1  UNL1       -0.3794
     31 O          20.3856   72.3356    2.3014 O.3     1  UNL1       -0.3794
     32 O          24.2168   70.6266    0.0007 O.3     1  UNL1       -0.3775
     33 C          22.2638   71.3085    1.2345 C.3     1  UNL1        0.1715
     34 C          21.7815   72.0945    2.4552 C.3     1  UNL1        0.1694
     35 C          23.7881   71.2094    1.2267 C.3     1  UNL1        0.1967
     36 C          22.5405   73.4209    2.5953 C.3     1  UNL1        0.1761
     37 C          24.4441   72.5776    1.4213 C.3     1  UNL1        0.2704
     38 H          20.7426   70.0473    1.3067 H       1  UNL1        0.2105
     39 H          19.9180   71.4901    2.2135 H       1  UNL1        0.2105
     40 H          23.7949   69.7609   -0.1106 H       1  UNL1        0.2106
     41 O          21.6188   73.2132    4.7899 O.3     1  UNL1       -0.3794
     42 C          22.1879   74.1476    3.8914 C.3     1  UNL1        0.1693
     43 H          21.3897   73.6615    5.6195 H       1  UNL1        0.2105
@<TRIPOS>UNITY_ATOM_ATTR
2 1
charge -1
26 1
charge -1
@<TRIPOS>BOND
     1    25    28    1
     2    25    24    1
     3    25    26    1
     4    25    27    2
     5     1     4    1
     6     1    24    1
     7     1     2    1
     8     1     3    2
     9     6    11    1
    10     6    12    1
    11    29    36    1
    12    29    37    1
    13     7     9    1
    14     7    13    1
    15     8    10    1
    16     8    14    1
    17    28    37    1
    18     4     5    1
    19    30    33    1
    20    30    38    1
    21    31    34    1
    22    31    39    1
    23    32    35    1
    24    32    40    1
    25    41    42    1
    26    41    43    1
    27    15    19    2
    28    16    22    2
    29    17    12    1
    30    17    19   ar
    31    17    20   ar
    32    18    19   ar
    33    18    22   ar
    34    18    23    1
    35     9    10    1
    36     9    11    1
    37    10    12    1
    38    11     5    1
    39    33    34    1
    40    33    35    1
    41    34    36    1
    42    35    37    1
    43    36    42    1
    44    20    21   ar
    45    21    22   ar
@<TRIPOS>MOLECULE
*****
 43 45 0 0 0
SMALL
GASTEIGER

@<TRIPOS>ATOM
      1 P          21.2748   72.4811   -4.6442 P.3     1  UNL1        0.2189
      2 O          20.7830   73.9547   -4.1927 O.co2   1  UNL1       -0.4371
      3 O          22.2154   72.4573   -5.8130 O.2     1  UNL1       -0.5170
      4 O          19.8977   71.6531   -4.8335 O.3     1  UNL1       -0.3112
      5 C          19.2514   71.1430   -3.6803 C.3     1  UNL1        0.1811
      6 O          17.4857   71.7449   -5.1947 O.3     1  UNL1       -0.3308
      7 O          15.6407   70.3055   -3.3199 O.3     1  UNL1       -0.3794
      8 O          15.9969   68.4844   -5.3182 O.3     1  UNL1       -0.3779
      9 C          16.9836   69.9898   -3.6837 C.3     1  UNL1        0.1713
     10 C          17.0285   69.4220   -5.0870 C.3     1  UNL1        0.1895
     11 C          17.7460   71.2989   -3.8457 C.3     1  UNL1        0.1764
     12 C          16.8835   70.6724   -5.9376 C.3     1  UNL1        0.2383
     13 H          15.1342   69.4849   -3.2104 H       1  UNL1        0.2105
     14 H          16.1336   67.7073   -4.7540 H       1  UNL1        0.2106
     15 O          15.5838   70.8232   -8.4408 O.2     1  UNL1       -0.2464
     16 O          19.5320   70.1977  -10.7344 O.2     1  UNL1       -0.2670
     17 N          17.5476   70.5527   -7.2049 N.ar    1  UNL1       -0.2551
     18 N          17.5508   70.5118   -9.5808 N.ar    1  UNL1       -0.2743
     19 C          16.8026   70.6421   -8.4039 C.ar    1  UNL1        0.3323
     20 C          18.9225   70.3493   -7.2504 C.ar    1  UNL1        0.0869
     21 C          19.6210   70.2259   -8.3809 C.ar    1  UNL1        0.0795
     22 C          18.9181   70.3074   -9.6776 C.ar    1  UNL1        0.2626
     23 H          17.0528   70.5704  -10.4284 H       1  UNL1        0.1734
     24 O          21.8833   71.8667   -3.2784 O.3     1  UNL1       -0.2703
     25 P          23.3703   71.9446   -2.6495 P.3     1  UNL1        0.2208
     26 O          23.9152   73.3793   -3.1618 O.co2   1  UNL1       -0.4371
     27 O          24.2518   70.7834   -3.0082 O.2     1  UNL1       -0.5170
     28 O          23.1340   72.1405   -1.0650 O.3     1  UNL1       -0.2858
     29 O          23.8401   70.6783    0.6612 O.3     1  UNL1       -0.3258
     30 O          20.4167   72.1725    2.4215 O.3     1  UNL1       -0.3794
     31 O          22.9888   72.9990    3.3959 O.3     1  UNL1       -0.3794
     32 O          20.4544   71.6143   -0.4187 O.3     1  UNL1       -0.3775
     33 C          21.5952   72.2245    1.6129 C.3     1  UNL1        0.1715
     34 C          22.8002   71.9067    2.5006 C.3     1  UNL1        0.1694
     35 C          21.4729   71.2007    0.4858 C.3     1  UNL1        0.1967
     36 C          24.0637   71.6811    1.6594 C.3     1  UNL1        0.1761
     37 C          22.7979   71.0163   -0.2560 C.3     1  UNL1        0.2704
     38 H          20.4878   72.8206    3.1388 H       1  UNL1        0.2105
     39 H          22.1836   73.1312    3.9207 H       1  UNL1        0.2105
     40 H          19.6207   71.7272    0.0630 H       1  UNL1        0.2106
     41 O          25.1000   69.8188    2.7396 O.3     1  UNL1       -0.3794
     42 C          25.2405   71.2087    2.5103 C.3     1  UNL1        0.1693
     43 H          25.8423   69.5042    3.2798 H       1  UNL1        0.2105
@<TRIPOS>UNITY_ATOM_ATTR
2 1
charge -1
26 1
charge -1
@<TRIPOS>BOND
     1    25    28    1
     2    25    24    1
     3    25    26    1
     4    25    27    2
     5     1     4    1
     6     1    24    1
     7     1     2    1
     8     1     3    2
     9     6    11    1
    10     6    12    1
    11    29    36    1
    12    29    37    1
    13     7     9    1
    14     7    13    1
    15     8    10    1
    16     8    14    1
    17    28    37    1
    18     4     5    1
    19    30    33    1
    20    30    38    1
    21    31    34    1
    22    31    39    1
    23    32    35    1
    24    32    40    1
    25    41    42    1
    26    41    43    1
    27    15    19    2
    28    16    22    2
    29    17    12    1
    30    17    19   ar
    31    17    20   ar
    32    18    19   ar
    33    18    22   ar
    34    18    23    1
    35     9    10    1
    36     9    11    1
    37    10    12    1
    38    11     5    1
    39    33    34    1
    40    33    35    1
    41    34    36    1
    42    35    37    1
    43    36    42    1
    44    20    21   ar
    45    21    22   ar
@<TRIPOS>MOLECULE
*****
 43 45 0 0 0
SMALL
GASTEIGER

@<TRIPOS>ATOM
      1 P          21.8430   72.4758   -5.9452 P.3     1  UNL1        0.2189
      2 O          20.6559   73.2893   -5.2059 O.co2   1  UNL1       -0.4371
      3 O          22.8273   73.3287   -6.6903 O.2     1  UNL1       -0.5170
      4 O          21.0625   71.3680   -6.8293 O.3     1  UNL1       -0.3112
      5 C          20.2664   71.8084   -7.9156 C.3     1  UNL1        0.1811
      6 O          19.0269   69.8201   -7.3822 O.3     1  UNL1       -0.3308
      7 O          17.9591   69.9604  -10.1806 O.3     1  UNL1       -0.3794
      8 O          15.9038   70.9822   -8.7082 O.3     1  UNL1       -0.3779
      9 C          18.2670   71.0216   -9.2782 C.3     1  UNL1        0.1713
     10 C          17.2135   71.1122   -8.1940 C.3     1  UNL1        0.1895
     11 C          19.5049   70.6197   -8.4861 C.3     1  UNL1        0.1764
     12 C          17.6004   69.9604   -7.2818 C.3     1  UNL1        0.2383
     13 H          17.1720   70.1943  -10.6980 H       1  UNL1        0.2105
     14 H          15.7050   71.7386   -9.2820 H       1  UNL1        0.2106
     15 O          16.1862   68.1444   -5.6446 O.2     1  UNL1       -0.2464
     16 O          16.3155   71.0114   -2.0383 O.2     1  UNL1       -0.2670
     17 N          17.2513   70.2064   -5.9110 N.ar    1  UNL1       -0.2551
     18 N          16.2519   69.5733   -3.8502 N.ar    1  UNL1       -0.2743
     19 C          16.5392   69.2292   -5.1773 C.ar    1  UNL1        0.3323
     20 C          17.6149   71.4055   -5.3078 C.ar    1  UNL1        0.0869
     21 C          17.3322   71.7189   -4.0417 C.ar    1  UNL1        0.0795
     22 C          16.5906   70.7527   -3.2059 C.ar    1  UNL1        0.2626
     23 H          15.7562   68.9080   -3.3198 H       1  UNL1        0.1734
     24 O          22.4836   71.5993   -4.7475 O.3     1  UNL1       -0.2703
     25 P          23.4786   72.0144   -3.5432 P.3     1  UNL1        0.2208
     26 O          24.4584   73.1034   -4.2300 O.co2   1  UNL1       -0.4371
     27 O          24.1901   70.8562   -2.9058 O.2     1  UNL1       -0.5170
     28 O          22.5598   72.8734   -2.5318 O.3     1  UNL1       -0.2858
     29 O          21.9286   75.1439   -2.7831 O.3     1  UNL1       -0.3258
     30 O          22.0224   74.9377    1.3399 O.3     1  UNL1       -0.3794
     31 O          19.4949   75.0937   -0.0148 O.3     1  UNL1       -0.3794
     32 O          24.0119   73.5297   -0.2219 O.3     1  UNL1       -0.3775
     33 C          21.7974   74.4469    0.0156 C.3     1  UNL1        0.1715
     34 C          20.7460   75.3349   -0.6528 C.3     1  UNL1        0.1694
     35 C          23.1111   74.4902   -0.7627 C.3     1  UNL1        0.1967
     36 C          20.6454   75.0393   -2.1553 C.3     1  UNL1        0.1761
     37 C          22.8926   74.2312   -2.2545 C.3     1  UNL1        0.2704
     38 H          21.1923   74.9123    1.8396 H       1  UNL1        0.2105
     39 H          19.5722   75.2835    0.9334 H       1  UNL1        0.2105
     40 H          24.1421   73.7047    0.7227 H       1  UNL1        0.2106
     41 O          20.0685   76.0515   -4.2414 O.3     1  UNL1       -0.3794
     42 C          19.7178   76.0195   -2.8701 C.3     1  UNL1        0.1693
     43 H          19.4862   76.6711   -4.7091 H       1  UNL1        0.2105
@<TRIPOS>UNITY_ATOM_ATTR
2 1
charge -1
26 1
charge -1
@<TRIPOS>BOND
     1    25    28    1
     2    25    24    1
     3    25    26    1
     4    25    27    2
     5     1     4    1
     6     1    24    1
     7     1     2    1
     8     1     3    2
     9     6    11    1
    10     6    12    1
    11    29    36    1
    12    29    37    1
    13     7     9    1
    14     7    13    1
    15     8    10    1
    16     8    14    1
    17    28    37    1
    18     4     5    1
    19    30    33    1
    20    30    38    1
    21    31    34    1
    22    31    39    1
    23    32    35    1
    24    32    40    1
    25    41    42    1
    26    41    43    1
    27    15    19    2
    28    16    22    2
    29    17    12    1
    30    17    19   ar
    31    17    20   ar
    32    18    19   ar
    33    18    22   ar
    34    18    23    1
    35     9    10    1
    36     9    11    1
    37    10    12    1
    38    11     5    1
    39    33    34    1
    40    33    35    1
    41    34    36    1
    42    35    37    1
    43    36    42    1
    44    20    21   ar
    45    21    22   ar
@<TRIPOS>MOLECULE
*****
 43 45 0 0 0
SMALL
GASTEIGER

@<TRIPOS>ATOM
      1 P          23.2186   71.5343   -2.0274 P.3     1  UNL1        0.2189
      2 O          23.3304   73.1454   -1.9316 O.co2   1  UNL1       -0.4371
      3 O          24.1641   70.8900   -2.9982 O.2     1  UNL1       -0.5170
      4 O          21.6455   71.2695   -2.2977 O.3     1  UNL1       -0.3112
      5 C          21.0278   71.9249   -3.3916 C.3     1  UNL1        0.1811
      6 O          21.2742   70.8211   -5.5117 O.3     1  UNL1       -0.3308
      7 O          23.2604   72.9640   -6.1852 O.3     1  UNL1       -0.3794
      8 O          21.0185   73.7989   -7.4942 O.3     1  UNL1       -0.3779
      9 C          22.0568   73.0562   -5.4250 C.3     1  UNL1        0.1713
     10 C          20.8513   73.0009   -6.3400 C.3     1  UNL1        0.1895
     11 C          21.9076   71.7685   -4.6243 C.3     1  UNL1        0.1764
     12 C          20.7673   71.5184   -6.6614 C.3     1  UNL1        0.2383
     13 H          23.3775   73.7753   -6.7048 H       1  UNL1        0.2105
     14 H          21.0664   74.7330   -7.2375 H       1  UNL1        0.2106
     15 O          19.7136   70.9855   -9.2272 O.2     1  UNL1       -0.2464
     16 O          15.5870   69.8732   -7.5022 O.2     1  UNL1       -0.2670
     17 N          19.4208   71.0877   -6.9118 N.ar    1  UNL1       -0.2551
     18 N          17.6598   70.4319   -8.3662 N.ar    1  UNL1       -0.2743
     19 C          18.9910   70.8483   -8.2379 C.ar    1  UNL1        0.3323
     20 C          18.5422   70.9066   -5.8492 C.ar    1  UNL1        0.0869
     21 C          17.2754   70.5103   -5.9886 C.ar    1  UNL1        0.0795
     22 C          16.7473   70.2388   -7.3411 C.ar    1  UNL1        0.2626
     23 H          17.3381   70.2595   -9.2809 H       1  UNL1        0.1734
     24 O          23.4075   71.0649   -0.4921 O.3     1  UNL1       -0.2703
     25 P          22.4075   71.1511    0.7750 P.3     1  UNL1        0.2208
     26 O          23.4128   71.1398    2.0425 O.co2   1  UNL1       -0.4371
     27 O          21.3596   70.0765    0.8061 O.2     1  UNL1       -0.5170
     28 O          21.8225   72.6548    0.7321 O.3     1  UNL1       -0.2858
     29 O          20.8431   72.8955    2.8767 O.3     1  UNL1       -0.3258
     30 O          20.2317   76.7179    1.4394 O.3     1  UNL1       -0.3794
     31 O          22.2170   76.2653    3.4646 O.3     1  UNL1       -0.3794
     32 O          19.9420   74.4460   -0.3310 O.3     1  UNL1       -0.3775
     33 C          20.9365   75.4841    1.6015 C.3     1  UNL1        0.1715
     34 C          21.2408   75.2976    3.0893 C.3     1  UNL1        0.1694
     35 C          20.0667   74.3404    1.0832 C.3     1  UNL1        0.1967
     36 C          21.7553   73.8805    3.3761 C.3     1  UNL1        0.1761
     37 C          20.6425   72.9754    1.4642 C.3     1  UNL1        0.2704
     38 H          20.7787   77.4482    1.7662 H       1  UNL1        0.2105
     39 H          21.8800   77.1556    3.2779 H       1  UNL1        0.2105
     40 H          19.5762   75.3143   -0.5592 H       1  UNL1        0.2106
     41 O          22.4516   72.3239    5.0498 O.3     1  UNL1       -0.3794
     42 C          21.9154   73.6222    4.8727 C.3     1  UNL1        0.1693
     43 H          22.5593   72.1457    5.9976 H       1  UNL1        0.2105
@<TRIPOS>UNITY_ATOM_ATTR
2 1
charge -1
26 1
charge -1
@<TRIPOS>BOND
     1    25    28    1
     2    25    24    1
     3    25    26    1
     4    25    27    2
     5     1     4    1
     6     1    24    1
     7     1     2    1
     8     1     3    2
     9     6    11    1
    10     6    12    1
    11    29    36    1
    12    29    37    1
    13     7     9    1
    14     7    13    1
    15     8    10    1
    16     8    14    1
    17    28    37    1
    18     4     5    1
    19    30    33    1
    20    30    38    1
    21    31    34    1
    22    31    39    1
    23    32    35    1
    24    32    40    1
    25    41    42    1
    26    41    43    1
    27    15    19    2
    28    16    22    2
    29    17    12    1
    30    17    19   ar
    31    17    20   ar
    32    18    19   ar
    33    18    22   ar
    34    18    23    1
    35     9    10    1
    36     9    11    1
    37    10    12    1
    38    11     5    1
    39    33    34    1
    40    33    35    1
    41    34    36    1
    42    35    37    1
    43    36    42    1
    44    20    21   ar
    45    21    22   ar
@<TRIPOS>MOLECULE
*****
 43 45 0 0 0
SMALL
GASTEIGER

@<TRIPOS>ATOM
      1 P          22.0972   71.3391   -2.8341 P.3     1  UNL1        0.2189
      2 O          23.5205   70.6176   -3.1006 O.co2   1  UNL1       -0.4371
      3 O          21.5635   71.1921   -1.4395 O.2     1  UNL1       -0.5170
      4 O          21.1467   70.7710   -4.0137 O.3     1  UNL1       -0.3112
      5 C          20.1824   69.7849   -3.6891 C.3     1  UNL1        0.1811
      6 O          18.5773   71.2383   -4.7307 O.3     1  UNL1       -0.3308
      7 O          16.5789   70.1035   -2.8047 O.3     1  UNL1       -0.3794
      8 O          16.0280   68.7432   -5.1032 O.3     1  UNL1       -0.3779
      9 C          17.6699   69.4570   -3.4582 C.3     1  UNL1        0.1713
     10 C          17.3442   69.2231   -4.9186 C.3     1  UNL1        0.1895
     11 C          18.8211   70.4513   -3.5443 C.3     1  UNL1        0.1764
     12 C          17.5511   70.6060   -5.5129 C.3     1  UNL1        0.2383
     13 H          15.8316   69.4878   -2.7377 H       1  UNL1        0.2105
     14 H          15.9470   67.8611   -4.7081 H       1  UNL1        0.2106
     15 O          15.8033   70.3191   -7.7131 O.2     1  UNL1       -0.2464
     16 O          19.2874   70.4218  -10.7283 O.2     1  UNL1       -0.2670
     17 N          17.9744   70.5552   -6.8839 N.ar    1  UNL1       -0.2551
     18 N          17.5395   70.3707   -9.2126 N.ar    1  UNL1       -0.2743
     19 C          17.0163   70.4080   -7.9138 C.ar    1  UNL1        0.3323
     20 C          19.3262   70.6512   -7.1957 C.ar    1  UNL1        0.0869
     21 C          19.8090   70.6125   -8.4394 C.ar    1  UNL1        0.0795
     22 C          18.8746   70.4608   -9.5733 C.ar    1  UNL1        0.2626
     23 H          16.8907   70.2683   -9.9464 H       1  UNL1        0.1734
     24 O          22.3719   72.8649   -3.2919 O.3     1  UNL1       -0.2703
     25 P          23.4011   73.4788   -4.3767 P.3     1  UNL1        0.2208
     26 O          23.1868   72.5302   -5.6697 O.co2   1  UNL1       -0.4371
     27 O          24.8217   73.5622   -3.8985 O.2     1  UNL1       -0.5170
     28 O          22.7530   74.8955   -4.7985 O.3     1  UNL1       -0.2858
     29 O          24.2000   75.5905   -6.5420 O.3     1  UNL1       -0.3258
     30 O          21.3854   78.6025   -6.7803 O.3     1  UNL1       -0.3794
     31 O          21.4784   76.5841   -8.8212 O.3     1  UNL1       -0.3794
     32 O          22.1875   77.5771   -4.1949 O.3     1  UNL1       -0.3775
     33 C          21.8503   77.2682   -6.5596 C.3     1  UNL1        0.1715
     34 C          22.5041   76.7686   -7.8495 C.3     1  UNL1        0.1694
     35 C          22.8593   77.2744   -5.4128 C.3     1  UNL1        0.1967
     36 C          23.2601   75.4540   -7.6143 C.3     1  UNL1        0.1761
     37 C          23.5904   75.9357   -5.2965 C.3     1  UNL1        0.2704
     38 H          20.7440   78.6055   -7.5070 H       1  UNL1        0.2105
     39 H          21.0084   77.4213   -8.9601 H       1  UNL1        0.2105
     40 H          21.7289   78.4269   -4.2812 H       1  UNL1        0.2106
     41 O          23.8252   73.6387   -9.0614 O.3     1  UNL1       -0.3794
     42 C          24.0499   75.0199   -8.8471 C.3     1  UNL1        0.1693
     43 H          24.3215   73.3484   -9.8432 H       1  UNL1        0.2105
@<TRIPOS>UNITY_ATOM_ATTR
2 1
charge -1
26 1
charge -1
@<TRIPOS>BOND
     1    25    28    1
     2    25    24    1
     3    25    26    1
     4    25    27    2
     5     1     4    1
     6     1    24    1
     7     1     2    1
     8     1     3    2
     9     6    11    1
    10     6    12    1
    11    29    36    1
    12    29    37    1
    13     7     9    1
    14     7    13    1
    15     8    10    1
    16     8    14    1
    17    28    37    1
    18     4     5    1
    19    30    33    1
    20    30    38    1
    21    31    34    1
    22    31    39    1
    23    32    35    1
    24    32    40    1
    25    41    42    1
    26    41    43    1
    27    15    19    2
    28    16    22    2
    29    17    12    1
    30    17    19   ar
    31    17    20   ar
    32    18    19   ar
    33    18    22   ar
    34    18    23    1
    35     9    10    1
    36     9    11    1
    37    10    12    1
    38    11     5    1
    39    33    34    1
    40    33    35    1
    41    34    36    1
    42    35    37    1
    43    36    42    1
    44    20    21   ar
    45    21    22   ar
@<TRIPOS>MOLECULE
*****
 43 45 0 0 0
SMALL
GASTEIGER

@<TRIPOS>ATOM
      1 P          20.8699   71.2855   -1.5432 P.3     1  UNL1        0.2189
      2 O          21.5852   70.5306   -2.7826 O.co2   1  UNL1       -0.4371
      3 O          20.7962   70.4893   -0.2735 O.2     1  UNL1       -0.5170
      4 O          19.4515   71.7718   -2.1510 O.3     1  UNL1       -0.3112
      5 C          19.1434   71.4433   -3.4945 C.3     1  UNL1        0.1811
      6 O          17.2769   71.7221   -4.9820 O.3     1  UNL1       -0.3308
      7 O          15.7539   69.9515   -3.1014 O.3     1  UNL1       -0.3794
      8 O          16.4128   68.2441   -5.1231 O.3     1  UNL1       -0.3779
      9 C          17.1269   69.8918   -3.4841 C.3     1  UNL1        0.1713
     10 C          17.2570   69.3538   -4.8938 C.3     1  UNL1        0.1895
     11 C          17.6329   71.3204   -3.6409 C.3     1  UNL1        0.1764
     12 C          16.8728   70.5631   -5.7293 C.3     1  UNL1        0.2383
     13 H          15.4087   69.0507   -2.9949 H       1  UNL1        0.2105
     14 H          16.6979   67.5008   -4.5689 H       1  UNL1        0.2106
     15 O          15.5325   70.6222   -8.2148 O.2     1  UNL1       -0.2464
     16 O          19.4993   70.6184  -10.5613 O.2     1  UNL1       -0.2670
     17 N          17.5306   70.5785   -7.0054 N.ar    1  UNL1       -0.2551
     18 N          17.5087   70.6204   -9.3812 N.ar    1  UNL1       -0.2743
     19 C          16.7650   70.6071   -8.1943 C.ar    1  UNL1        0.3323
     20 C          18.9197   70.5656   -7.0692 C.ar    1  UNL1        0.0869
     21 C          19.6138   70.5772   -8.2091 C.ar    1  UNL1        0.0795
     22 C          18.8898   70.6071   -9.4963 C.ar    1  UNL1        0.2626
     23 H          16.9966   70.6400  -10.2220 H       1  UNL1        0.1734
     24 O          21.7064   72.6637   -1.4254 O.3     1  UNL1       -0.2703
     25 P          21.8983   73.6865   -0.1885 P.3     1  UNL1        0.2208
     26 O          22.9280   72.9041    0.7837 O.co2   1  UNL1       -0.4371
     27 O          20.6155   74.1003    0.4726 O.2     1  UNL1       -0.5170
     28 O          22.7607   74.9072   -0.7979 O.3     1  UNL1       -0.2858
     29 O          24.0536   73.8380   -2.4717 O.3     1  UNL1       -0.3258
     30 O          25.2029   77.7463   -3.1463 O.3     1  UNL1       -0.3794
     31 O          23.4649   76.4359   -5.0198 O.3     1  UNL1       -0.3794
     32 O          24.7931   76.8086   -0.4385 O.3     1  UNL1       -0.3775
     33 C          24.2979   76.6968   -2.7930 C.3     1  UNL1        0.1715
     34 C          24.1702   75.7508   -3.9886 C.3     1  UNL1        0.1694
     35 C          24.8456   75.9540   -1.5758 C.3     1  UNL1        0.1967
     36 C          23.4309   74.4634   -3.5999 C.3     1  UNL1        0.1761
     37 C          24.0700   74.6635   -1.3055 C.3     1  UNL1        0.2704
     38 H          24.8608   78.2222   -3.9183 H       1  UNL1        0.2105
     39 H          23.9419   77.2471   -5.2556 H       1  UNL1        0.2105
     40 H          25.2879   77.6218   -0.6221 H       1  UNL1        0.2106
     41 O          24.0375   72.2499   -4.2646 O.3     1  UNL1       -0.3794
     42 C          23.4303   73.4398   -4.7333 C.3     1  UNL1        0.1693
     43 H          24.0438   71.5892   -4.9753 H       1  UNL1        0.2105
@<TRIPOS>UNITY_ATOM_ATTR
2 1
charge -1
26 1
charge -1
@<TRIPOS>BOND
     1    25    28    1
     2    25    24    1
     3    25    26    1
     4    25    27    2
     5     1     4    1
     6     1    24    1
     7     1     2    1
     8     1     3    2
     9     6    11    1
    10     6    12    1
    11    29    36    1
    12    29    37    1
    13     7     9    1
    14     7    13    1
    15     8    10    1
    16     8    14    1
    17    28    37    1
    18     4     5    1
    19    30    33    1
    20    30    38    1
    21    31    34    1
    22    31    39    1
    23    32    35    1
    24    32    40    1
    25    41    42    1
    26    41    43    1
    27    15    19    2
    28    16    22    2
    29    17    12    1
    30    17    19   ar
    31    17    20   ar
    32    18    19   ar
    33    18    22   ar
    34    18    23    1
    35     9    10    1
    36     9    11    1
    37    10    12    1
    38    11     5    1
    39    33    34    1
    40    33    35    1
    41    34    36    1
    42    35    37    1
    43    36    42    1
    44    20    21   ar
    45    21    22   ar
@<TRIPOS>MOLECULE
*****
 43 45 0 0 0
SMALL
GASTEIGER

@<TRIPOS>ATOM
      1 P          16.0354   70.7601   -2.3199 P.3     1  UNL1        0.2189
      2 O          15.6200   71.4257   -3.7348 O.co2   1  UNL1       -0.4371
      3 O          16.3919   69.3040   -2.3849 O.2     1  UNL1       -0.5170
      4 O          14.8077   71.1397   -1.3368 O.3     1  UNL1       -0.3112
      5 C          14.3341   70.1545   -0.4352 C.3     1  UNL1        0.1811
      6 O          12.9099   68.2193   -0.4547 O.3     1  UNL1       -0.3308
      7 O          10.7682   70.0375   -1.5026 O.3     1  UNL1       -0.3794
      8 O          10.1203   69.8153    1.1370 O.3     1  UNL1       -0.3779
      9 C          11.7973   70.3093   -0.5526 C.3     1  UNL1        0.1713
     10 C          11.4759   69.6519    0.7733 C.3     1  UNL1        0.1895
     11 C          13.0478   69.5550   -0.9868 C.3     1  UNL1        0.1764
     12 C          11.8376   68.2015    0.5017 C.3     1  UNL1        0.2383
     13 H           9.9593   70.5089   -1.2465 H       1  UNL1        0.2105
     14 H           9.9398   70.7543    1.2993 H       1  UNL1        0.2106
     15 O          12.0482   65.3945    0.7345 O.2     1  UNL1       -0.2464
     16 O          13.5395   65.6837    5.0858 O.2     1  UNL1       -0.2670
     17 N          12.2786   67.5164    1.6839 N.ar    1  UNL1       -0.2551
     18 N          12.7908   65.5408    2.9009 N.ar    1  UNL1       -0.2743
     19 C          12.3476   66.1038    1.6973 C.ar    1  UNL1        0.3323
     20 C          12.6373   68.2441    2.8134 C.ar    1  UNL1        0.0869
     21 C          13.0567   67.6920    3.9538 C.ar    1  UNL1        0.0795
     22 C          13.1574   66.2215    4.0511 C.ar    1  UNL1        0.2626
     23 H          12.8465   64.5581    2.9336 H       1  UNL1        0.1734
     24 O          17.2268   71.7219   -1.8016 O.3     1  UNL1       -0.2703
     25 P          18.8108   71.7176   -2.1237 P.3     1  UNL1        0.2208
     26 O          19.2874   70.2550   -1.6225 O.co2   1  UNL1       -0.4371
     27 O          19.5669   72.8596   -1.5090 O.2     1  UNL1       -0.5170
     28 O          18.9000   71.6459   -3.7337 O.3     1  UNL1       -0.2858
     29 O          18.2597   69.8665   -5.1621 O.3     1  UNL1       -0.3258
     30 O          21.4720   71.3164   -7.3137 O.3     1  UNL1       -0.3794
     31 O          18.8032   71.7626   -8.2762 O.3     1  UNL1       -0.3794
     32 O          21.5892   71.2349   -4.4224 O.3     1  UNL1       -0.3775
     33 C          20.3245   71.4075   -6.4650 C.3     1  UNL1        0.1715
     34 C          19.1194   70.8522   -7.2267 C.3     1  UNL1        0.1694
     35 C          20.5775   70.5976   -5.1948 C.3     1  UNL1        0.1967
     36 C          17.9126   70.6691   -6.2966 C.3     1  UNL1        0.1761
     37 C          19.3021   70.4336   -4.3661 C.3     1  UNL1        0.2704
     38 H          21.3181   71.8290   -8.1218 H       1  UNL1        0.2105
     39 H          19.5737   71.8698   -8.8560 H       1  UNL1        0.2105
     40 H          22.3914   71.3326   -4.9581 H       1  UNL1        0.2106
     41 O          15.5879   70.7627   -6.8407 O.3     1  UNL1       -0.3794
     42 C          16.7503   69.9702   -6.9986 C.3     1  UNL1        0.1693
     43 H          14.8400   70.3303   -7.2828 H       1  UNL1        0.2105
@<TRIPOS>UNITY_ATOM_ATTR
2 1
charge -1
26 1
charge -1
@<TRIPOS>BOND
     1    25    28    1
     2    25    24    1
     3    25    26    1
     4    25    27    2
     5     1     4    1
     6     1    24    1
     7     1     2    1
     8     1     3    2
     9     6    11    1
    10     6    12    1
    11    29    36    1
    12    29    37    1
    13     7     9    1
    14     7    13    1
    15     8    10    1
    16     8    14    1
    17    28    37    1
    18     4     5    1
    19    30    33    1
    20    30    38    1
    21    31    34    1
    22    31    39    1
    23    32    35    1
    24    32    40    1
    25    41    42    1
    26    41    43    1
    27    15    19    2
    28    16    22    2
    29    17    12    1
    30    17    19   ar
    31    17    20   ar
    32    18    19   ar
    33    18    22   ar
    34    18    23    1
    35     9    10    1
    36     9    11    1
    37    10    12    1
    38    11     5    1
    39    33    34    1
    40    33    35    1
    41    34    36    1
    42    35    37    1
    43    36    42    1
    44    20    21   ar
    45    21    22   ar
@<TRIPOS>MOLECULE
*****
 43 45 0 0 0
SMALL
GASTEIGER

@<TRIPOS>ATOM
      1 P          22.9880   71.3456   -2.4538 P.3     1  UNL1        0.2189
      2 O          22.6953   72.9364   -2.4861 O.co2   1  UNL1       -0.4371
      3 O          24.2937   70.9289   -3.0644 O.2     1  UNL1       -0.5170
      4 O          21.6631   70.6934   -3.1150 O.3     1  UNL1       -0.3112
      5 C          20.9800   71.4225   -4.1197 C.3     1  UNL1        0.1811
      6 O          21.0766   70.7176   -6.4149 O.3     1  UNL1       -0.3308
      7 O          23.2529   72.7523   -6.7530 O.3     1  UNL1       -0.3794
      8 O          21.0812   74.0249   -7.8022 O.3     1  UNL1       -0.3779
      9 C          22.0786   72.8132   -5.9452 C.3     1  UNL1        0.1713
     10 C          20.8569   73.0441   -6.8100 C.3     1  UNL1        0.1895
     11 C          21.8172   71.4180   -5.3915 C.3     1  UNL1        0.1764
     12 C          20.6204   71.6627   -7.3965 C.3     1  UNL1        0.2383
     13 H          23.4403   73.6321   -7.1176 H       1  UNL1        0.2105
     14 H          21.2263   74.8856   -7.3792 H       1  UNL1        0.2106
     15 O          19.6779   70.0706   -9.5308 O.2     1  UNL1       -0.2464
     16 O          15.2774   70.7841   -8.3610 O.2     1  UNL1       -0.2670
     17 N          19.2334   71.4151   -7.6728 N.ar    1  UNL1       -0.2551
     18 N          17.4876   70.4270   -8.9465 N.ar    1  UNL1       -0.2743
     19 C          18.8661   70.6017   -8.7701 C.ar    1  UNL1        0.3323
     20 C          18.2541   71.9759   -6.8602 C.ar    1  UNL1        0.0869
     21 C          16.9436   71.8006   -7.0426 C.ar    1  UNL1        0.0795
     22 C          16.4756   70.9643   -8.1667 C.ar    1  UNL1        0.2626
     23 H          17.2081   69.8644   -9.7048 H       1  UNL1        0.1734
     24 O          22.8304   70.9789   -0.8873 O.3     1  UNL1       -0.2703
     25 P          21.5725   71.1288    0.1167 P.3     1  UNL1        0.2208
     26 O          21.7651   69.8907    1.1402 O.co2   1  UNL1       -0.4371
     27 O          20.2378   71.1627   -0.5699 O.2     1  UNL1       -0.5170
     28 O          21.9058   72.4404    0.9961 O.3     1  UNL1       -0.2858
     29 O          23.4361   71.6017    2.5996 O.3     1  UNL1       -0.3258
     30 O          23.5413   75.6023    3.6167 O.3     1  UNL1       -0.3794
     31 O          25.7909   74.4198    2.2792 O.3     1  UNL1       -0.3794
     32 O          21.0386   74.3772    2.8325 O.3     1  UNL1       -0.3775
     33 C          23.4425   74.4860    2.7282 C.3     1  UNL1        0.1715
     34 C          24.7264   73.6625    2.8482 C.3     1  UNL1        0.1694
     35 C          22.2268   73.6460    3.1154 C.3     1  UNL1        0.1967
     36 C          24.5878   72.3129    2.1310 C.3     1  UNL1        0.1761
     37 C          22.2108   72.3038    2.3816 C.3     1  UNL1        0.2704
     38 H          24.3110   76.1401    3.3760 H       1  UNL1        0.2105
     39 H          25.8673   75.2697    2.7407 H       1  UNL1        0.2105
     40 H          21.0608   75.2245    3.3030 H       1  UNL1        0.2106
     41 O          25.9179   70.5216    1.2760 O.3     1  UNL1       -0.3794
     42 C          25.7969   71.4112    2.3706 C.3     1  UNL1        0.1693
     43 H          26.6835   69.9417    1.4145 H       1  UNL1        0.2105
@<TRIPOS>UNITY_ATOM_ATTR
2 1
charge -1
26 1
charge -1
@<TRIPOS>BOND
     1    25    28    1
     2    25    24    1
     3    25    26    1
     4    25    27    2
     5     1     4    1
     6     1    24    1
     7     1     2    1
     8     1     3    2
     9     6    11    1
    10     6    12    1
    11    29    36    1
    12    29    37    1
    13     7     9    1
    14     7    13    1
    15     8    10    1
    16     8    14    1
    17    28    37    1
    18     4     5    1
    19    30    33    1
    20    30    38    1
    21    31    34    1
    22    31    39    1
    23    32    35    1
    24    32    40    1
    25    41    42    1
    26    41    43    1
    27    15    19    2
    28    16    22    2
    29    17    12    1
    30    17    19   ar
    31    17    20   ar
    32    18    19   ar
    33    18    22   ar
    34    18    23    1
    35     9    10    1
    36     9    11    1
    37    10    12    1
    38    11     5    1
    39    33    34    1
    40    33    35    1
    41    34    36    1
    42    35    37    1
    43    36    42    1
    44    20    21   ar
    45    21    22   ar
@<TRIPOS>MOLECULE
*****
 43 45 0 0 0
SMALL
GASTEIGER

@<TRIPOS>ATOM
      1 P          23.2563   72.0207   -3.2867 P.3     1  UNL1        0.2189
      2 O          23.9553   73.2760   -4.0303 O.co2   1  UNL1       -0.4371
      3 O          24.1461   70.8300   -3.0817 O.2     1  UNL1       -0.5170
      4 O          21.9149   71.7548   -4.1515 O.3     1  UNL1       -0.3112
      5 C          21.1246   70.6202   -3.8418 C.3     1  UNL1        0.1811
      6 O          19.1559   71.7004   -4.6968 O.3     1  UNL1       -0.3308
      7 O          17.6979   70.4518   -2.3933 O.3     1  UNL1       -0.3794
      8 O          17.0404   68.8130   -4.4715 O.3     1  UNL1       -0.3779
      9 C          18.7697   69.9259   -3.1744 C.3     1  UNL1        0.1713
     10 C          18.2686   69.5083   -4.5412 C.3     1  UNL1        0.1895
     11 C          19.7085   71.0758   -3.5175 C.3     1  UNL1        0.1764
     12 C          18.1444   70.8447   -5.2531 C.3     1  UNL1        0.2383
     13 H          17.0852   69.7357   -2.1617 H       1  UNL1        0.2105
     14 H          17.1717   67.9700   -4.0101 H       1  UNL1        0.2106
     15 O          16.1300   70.1821   -7.1188 O.2     1  UNL1       -0.2464
     16 O          19.0685   70.4424  -10.6599 O.2     1  UNL1       -0.2670
     17 N          18.3552   70.7327   -6.6688 N.ar    1  UNL1       -0.2551
     18 N          17.5947   70.3124   -8.8805 N.ar    1  UNL1       -0.2743
     19 C          17.2767   70.3937   -7.5188 C.ar    1  UNL1        0.3323
     20 C          19.6199   70.9584   -7.2011 C.ar    1  UNL1        0.0869
     21 C          19.9070   70.8756   -8.5019 C.ar    1  UNL1        0.0795
     22 C          18.8363   70.5264   -9.4578 C.ar    1  UNL1        0.2626
     23 H          16.8592   70.0772   -9.4916 H       1  UNL1        0.1734
     24 O          22.6861   72.6769   -1.9240 O.3     1  UNL1       -0.2703
     25 P          23.4201   73.0305   -0.5279 P.3     1  UNL1        0.2208
     26 O          24.2946   74.3425   -0.8903 O.co2   1  UNL1       -0.4371
     27 O          24.2153   71.8975    0.0534 O.2     1  UNL1       -0.5170
     28 O          22.2398   73.5782    0.4270 O.3     1  UNL1       -0.2858
     29 O          21.8075   72.0707    2.2038 O.3     1  UNL1       -0.3258
     30 O          18.6260   74.6485    2.7368 O.3     1  UNL1       -0.3794
     31 O          20.8143   74.6936    4.5961 O.3     1  UNL1       -0.3794
     32 O          19.4815   73.9442    0.0625 O.3     1  UNL1       -0.3775
     33 C          19.9673   74.2871    2.3965 C.3     1  UNL1        0.1715
     34 C          20.6235   73.6637    3.6300 C.3     1  UNL1        0.1694
     35 C          19.9373   73.2886    1.2410 C.3     1  UNL1        0.1967
     36 C          21.9656   73.0107    3.2731 C.3     1  UNL1        0.1761
     37 C          21.3117   72.6613    1.0008 C.3     1  UNL1        0.2704
     38 H          18.6379   75.2828    3.4696 H       1  UNL1        0.2105
     39 H          19.9594   75.0981    4.8124 H       1  UNL1        0.2105
     40 H          18.6105   74.3368    0.2274 H       1  UNL1        0.2106
     41 O          22.1951   72.9104    5.6493 O.3     1  UNL1       -0.3794
     42 C          22.5620   72.2472    4.4535 C.3     1  UNL1        0.1693
     43 H          22.5675   72.4354    6.4091 H       1  UNL1        0.2105
@<TRIPOS>UNITY_ATOM_ATTR
2 1
charge -1
26 1
charge -1
@<TRIPOS>BOND
     1    25    28    1
     2    25    24    1
     3    25    26    1
     4    25    27    2
     5     1     4    1
     6     1    24    1
     7     1     2    1
     8     1     3    2
     9     6    11    1
    10     6    12    1
    11    29    36    1
    12    29    37    1
    13     7     9    1
    14     7    13    1
    15     8    10    1
    16     8    14    1
    17    28    37    1
    18     4     5    1
    19    30    33    1
    20    30    38    1
    21    31    34    1
    22    31    39    1
    23    32    35    1
    24    32    40    1
    25    41    42    1
    26    41    43    1
    27    15    19    2
    28    16    22    2
    29    17    12    1
    30    17    19   ar
    31    17    20   ar
    32    18    19   ar
    33    18    22   ar
    34    18    23    1
    35     9    10    1
    36     9    11    1
    37    10    12    1
    38    11     5    1
    39    33    34    1
    40    33    35    1
    41    34    36    1
    42    35    37    1
    43    36    42    1
    44    20    21   ar
    45    21    22   ar
@<TRIPOS>MOLECULE
*****
 43 45 0 0 0
SMALL
GASTEIGER

@<TRIPOS>ATOM
      1 P          20.5226   71.2057   -1.2809 P.3     1  UNL1        0.2189
      2 O          20.7559   70.4966    0.1545 O.co2   1  UNL1       -0.4371
      3 O          20.1379   72.6546   -1.2168 O.2     1  UNL1       -0.5170
      4 O          19.4695   70.2315   -2.0289 O.3     1  UNL1       -0.3112
      5 C          19.1777   70.4725   -3.3944 C.3     1  UNL1        0.1811
      6 O          17.4847   71.4407   -4.7980 O.3     1  UNL1       -0.3308
      7 O          15.5115   69.8488   -3.1969 O.3     1  UNL1       -0.3794
      8 O          15.7737   68.3604   -5.4669 O.3     1  UNL1       -0.3779
      9 C          16.8351   69.5016   -3.6007 C.3     1  UNL1        0.1713
     10 C          16.8643   69.1706   -5.0783 C.3     1  UNL1        0.1895
     11 C          17.6899   70.7613   -3.5399 C.3     1  UNL1        0.1764
     12 C          16.8218   70.5511   -5.7112 C.3     1  UNL1        0.2383
     13 H          14.9470   69.0600   -3.2273 H       1  UNL1        0.2105
     14 H          15.8460   67.4934   -5.0382 H       1  UNL1        0.2106
     15 O          15.5181   70.5452   -8.2169 O.2     1  UNL1       -0.2464
     16 O          19.5162   70.7170  -10.5031 O.2     1  UNL1       -0.2670
     17 N          17.4975   70.5941   -6.9773 N.ar    1  UNL1       -0.2551
     18 N          17.5099   70.6310   -9.3532 N.ar    1  UNL1       -0.2743
     19 C          16.7495   70.5860   -8.1777 C.ar    1  UNL1        0.3323
     20 C          18.8866   70.6439   -7.0201 C.ar    1  UNL1        0.0869
     21 C          19.5967   70.6851   -8.1494 C.ar    1  UNL1        0.0795
     22 C          18.8917   70.6800   -9.4474 C.ar    1  UNL1        0.2626
     23 H          17.0102   70.6259  -10.2018 H       1  UNL1        0.1734
     24 O          21.9074   70.9112   -2.0610 O.3     1  UNL1       -0.2703
     25 P          23.0903   71.9052   -2.5360 P.3     1  UNL1        0.2208
     26 O          24.1965   70.8979   -3.1518 O.co2   1  UNL1       -0.4371
     27 O          23.6084   72.8068   -1.4532 O.2     1  UNL1       -0.5170
     28 O          22.4848   72.6780   -3.8171 O.3     1  UNL1       -0.2858
     29 O          23.2938   74.1590   -5.4811 O.3     1  UNL1       -0.3258
     30 O          19.8637   76.1890   -4.4022 O.3     1  UNL1       -0.3794
     31 O          19.9728   74.8335   -6.9318 O.3     1  UNL1       -0.3794
     32 O          21.4478   74.8541   -2.3803 O.3     1  UNL1       -0.3775
     33 C          20.6704   75.0350   -4.6528 C.3     1  UNL1        0.1715
     34 C          21.1166   75.0703   -6.1158 C.3     1  UNL1        0.1694
     35 C          21.8804   75.0598   -3.7208 C.3     1  UNL1        0.1967
     36 C          22.1970   74.0157   -6.3911 C.3     1  UNL1        0.1761
     37 C          22.9161   74.0041   -4.1117 C.3     1  UNL1        0.2704
     38 H          19.0934   76.1791   -4.9904 H       1  UNL1        0.2105
     39 H          19.2981   75.5060   -6.7479 H       1  UNL1        0.2105
     40 H          20.7927   75.5289   -2.1449 H       1  UNL1        0.2106
     41 O          22.8591   72.8412   -8.3636 O.3     1  UNL1       -0.3794
     42 C          22.7689   74.1376   -7.8018 C.3     1  UNL1        0.1693
     43 H          23.2214   72.9033   -9.2618 H       1  UNL1        0.2105
@<TRIPOS>UNITY_ATOM_ATTR
2 1
charge -1
26 1
charge -1
@<TRIPOS>BOND
     1    25    28    1
     2    25    24    1
     3    25    26    1
     4    25    27    2
     5     1     4    1
     6     1    24    1
     7     1     2    1
     8     1     3    2
     9     6    11    1
    10     6    12    1
    11    29    36    1
    12    29    37    1
    13     7     9    1
    14     7    13    1
    15     8    10    1
    16     8    14    1
    17    28    37    1
    18     4     5    1
    19    30    33    1
    20    30    38    1
    21    31    34    1
    22    31    39    1
    23    32    35    1
    24    32    40    1
    25    41    42    1
    26    41    43    1
    27    15    19    2
    28    16    22    2
    29    17    12    1
    30    17    19   ar
    31    17    20   ar
    32    18    19   ar
    33    18    22   ar
    34    18    23    1
    35     9    10    1
    36     9    11    1
    37    10    12    1
    38    11     5    1
    39    33    34    1
    40    33    35    1
    41    34    36    1
    42    35    37    1
    43    36    42    1
    44    20    21   ar
    45    21    22   ar
@<TRIPOS>MOLECULE
*****
 43 45 0 0 0
SMALL
GASTEIGER

@<TRIPOS>ATOM
      1 P          23.4251   72.3647   -3.5489 P.3     1  UNL1        0.2189
      2 O          23.8787   70.8264   -3.3354 O.co2   1  UNL1       -0.4371
      3 O          24.5334   73.3069   -3.9169 O.2     1  UNL1       -0.5170
      4 O          22.6188   72.7236   -2.1928 O.3     1  UNL1       -0.3112
      5 C          23.3446   72.8177   -0.9795 C.3     1  UNL1        0.1811
      6 O          24.3916   71.2962    0.5576 O.3     1  UNL1       -0.3308
      7 O          21.6418   70.2161    1.0701 O.3     1  UNL1       -0.3794
      8 O          22.0589   71.8290    3.2291 O.3     1  UNL1       -0.3779
      9 C          22.0503   71.5586    0.8129 C.3     1  UNL1        0.1713
     10 C          22.7380   72.1413    2.0299 C.3     1  UNL1        0.1895
     11 C          23.1843   71.5173   -0.2039 C.3     1  UNL1        0.1764
     12 C          24.1128   71.4995    1.9525 C.3     1  UNL1        0.2383
     13 H          20.9179   70.2169    1.7166 H       1  UNL1        0.2105
     14 H          21.1901   72.2603    3.2306 H       1  UNL1        0.2106
     15 O          26.7915   70.6908    2.3381 O.2     1  UNL1       -0.2464
     16 O          27.9594   74.7748    4.1264 O.2     1  UNL1       -0.2670
     17 N          25.1381   72.3314    2.5165 N.ar    1  UNL1       -0.2551
     18 N          27.3709   72.7250    3.2281 N.ar    1  UNL1       -0.2743
     19 C          26.4515   71.8288    2.6680 C.ar    1  UNL1        0.3323
     20 C          24.8371   73.6301    2.9123 C.ar    1  UNL1        0.0869
     21 C          25.7250   74.4716    3.4459 C.ar    1  UNL1        0.0795
     22 C          27.1197   74.0247    3.6383 C.ar    1  UNL1        0.2626
     23 H          28.2921   72.3966    3.3435 H       1  UNL1        0.1734
     24 O          22.2484   72.2470   -4.6509 O.3     1  UNL1       -0.2703
     25 P          20.6424   72.1696   -4.4848 P.3     1  UNL1        0.2208
     26 O          20.2381   73.6823   -4.0778 O.co2   1  UNL1       -0.4371
     27 O          20.1736   71.1217   -3.5174 O.2     1  UNL1       -0.5170
     28 O          20.0844   71.9892   -5.9885 O.3     1  UNL1       -0.2858
     29 O          19.1012   69.8466   -6.2324 O.3     1  UNL1       -0.3258
     30 O          18.9399   71.0980  -10.1642 O.3     1  UNL1       -0.3794
     31 O          16.5228   70.9625   -8.6190 O.3     1  UNL1       -0.3794
     32 O          21.2412   71.7513   -8.5342 O.3     1  UNL1       -0.3775
     33 C          18.8933   71.2561   -8.7435 C.3     1  UNL1        0.1715
     34 C          17.7573   70.3865   -8.2012 C.3     1  UNL1        0.1694
     35 C          20.2323   70.8237   -8.1490 C.3     1  UNL1        0.1967
     36 C          17.8129   70.2941   -6.6703 C.3     1  UNL1        0.1761
     37 C          20.1651   70.7162   -6.6245 C.3     1  UNL1        0.2704
     38 H          18.0928   71.3713  -10.5479 H       1  UNL1        0.2105
     39 H          16.5008   71.0156   -9.5874 H       1  UNL1        0.2105
     40 H          21.2739   71.8100   -9.5013 H       1  UNL1        0.2106
     41 O          15.5691   69.4865   -6.8191 O.3     1  UNL1       -0.3794
     42 C          16.7866   69.3066   -6.1194 C.3     1  UNL1        0.1693
     43 H          14.9065   68.8643   -6.4793 H       1  UNL1        0.2105
@<TRIPOS>UNITY_ATOM_ATTR
2 1
charge -1
26 1
charge -1
@<TRIPOS>BOND
     1    25    28    1
     2    25    24    1
     3    25    26    1
     4    25    27    2
     5     1     4    1
     6     1    24    1
     7     1     2    1
     8     1     3    2
     9     6    11    1
    10     6    12    1
    11    29    36    1
    12    29    37    1
    13     7     9    1
    14     7    13    1
    15     8    10    1
    16     8    14    1
    17    28    37    1
    18     4     5    1
    19    30    33    1
    20    30    38    1
    21    31    34    1
    22    31    39    1
    23    32    35    1
    24    32    40    1
    25    41    42    1
    26    41    43    1
    27    15    19    2
    28    16    22    2
    29    17    12    1
    30    17    19   ar
    31    17    20   ar
    32    18    19   ar
    33    18    22   ar
    34    18    23    1
    35     9    10    1
    36     9    11    1
    37    10    12    1
    38    11     5    1
    39    33    34    1
    40    33    35    1
    41    34    36    1
    42    35    37    1
    43    36    42    1
    44    20    21   ar
    45    21    22   ar
@<TRIPOS>MOLECULE
*****
 43 45 0 0 0
SMALL
GASTEIGER

@<TRIPOS>ATOM
      1 P          21.8334   72.4461   -5.6278 P.3     1  UNL1        0.2189
      2 O          21.1585   73.9016   -5.4198 O.co2   1  UNL1       -0.4371
      3 O          23.1398   72.4528   -6.3658 O.2     1  UNL1       -0.5170
      4 O          20.6536   71.5628   -6.2956 O.3     1  UNL1       -0.3112
      5 C          20.1686   71.9379   -7.5731 C.3     1  UNL1        0.1811
      6 O          18.9133   69.9307   -7.1620 O.3     1  UNL1       -0.3308
      7 O          18.1162   70.0611  -10.0497 O.3     1  UNL1       -0.3794
      8 O          15.9146   71.0498   -8.7801 O.3     1  UNL1       -0.3779
      9 C          18.3207   71.1249   -9.1213 C.3     1  UNL1        0.1713
     10 C          17.1670   71.1978   -8.1428 C.3     1  UNL1        0.1895
     11 C          19.4829   70.7395   -8.2146 C.3     1  UNL1        0.1764
     12 C          17.4817   70.0500   -7.1985 C.3     1  UNL1        0.2383
     13 H          17.3788   70.2845  -10.6398 H       1  UNL1        0.2105
     14 H          15.7605   71.8043   -9.3698 H       1  UNL1        0.2106
     15 O          16.2734   68.0884   -5.5645 O.2     1  UNL1       -0.2464
     16 O          15.6686   71.0773   -2.1087 O.2     1  UNL1       -0.2670
     17 N          16.9996   70.2880   -5.8673 N.ar    1  UNL1       -0.2551
     18 N          15.9734   69.5782   -3.8450 N.ar    1  UNL1       -0.2743
     19 C          16.4079   69.2348   -5.1316 C.ar    1  UNL1        0.3323
     20 C          17.1159   71.5542   -5.3042 C.ar    1  UNL1        0.0869
     21 C          16.6954   71.8656   -4.0764 C.ar    1  UNL1        0.0795
     22 C          16.0656   70.8224   -3.2415 C.ar    1  UNL1        0.2626
     23 H          15.5576   68.8606   -3.3141 H       1  UNL1        0.1734
     24 O          21.9145   71.8645   -4.1217 O.3     1  UNL1       -0.2703
     25 P          23.0861   71.9525   -3.0115 P.3     1  UNL1        0.2208
     26 O          23.6418   73.4629   -3.1774 O.co2   1  UNL1       -0.4371
     27 O          24.1372   70.8883   -3.1404 O.2     1  UNL1       -0.5170
     28 O          22.3089   71.9572   -1.5970 O.3     1  UNL1       -0.2858
     29 O          23.9740   72.4808    0.0062 O.3     1  UNL1       -0.3258
     30 O          20.7152   72.1565    2.5213 O.3     1  UNL1       -0.3794
     31 O          21.8187   74.7472    1.9573 O.3     1  UNL1       -0.3794
     32 O          21.0005   70.3394    0.2861 O.3     1  UNL1       -0.3775
     33 C          21.3967   72.4844    1.3075 C.3     1  UNL1        0.1715
     34 C          22.4720   73.5247    1.6272 C.3     1  UNL1        0.1694
     35 C          22.0279   71.2182    0.7317 C.3     1  UNL1        0.1967
     36 C          23.4171   73.7287    0.4355 C.3     1  UNL1        0.1761
     37 C          22.9876   71.5371   -0.4161 C.3     1  UNL1        0.2704
     38 H          20.3116   72.9561    2.8918 H       1  UNL1        0.2105
     39 H          21.2245   74.6046    2.7108 H       1  UNL1        0.2105
     40 H          20.3999   70.1449    1.0218 H       1  UNL1        0.2106
     41 O          25.2433   74.1194    1.9260 O.3     1  UNL1       -0.3794
     42 C          24.5890   74.6434    0.7851 C.3     1  UNL1        0.1693
     43 H          25.9916   74.6912    2.1599 H       1  UNL1        0.2105
@<TRIPOS>UNITY_ATOM_ATTR
2 1
charge -1
26 1
charge -1
@<TRIPOS>BOND
     1    25    28    1
     2    25    24    1
     3    25    26    1
     4    25    27    2
     5     1     4    1
     6     1    24    1
     7     1     2    1
     8     1     3    2
     9     6    11    1
    10     6    12    1
    11    29    36    1
    12    29    37    1
    13     7     9    1
    14     7    13    1
    15     8    10    1
    16     8    14    1
    17    28    37    1
    18     4     5    1
    19    30    33    1
    20    30    38    1
    21    31    34    1
    22    31    39    1
    23    32    35    1
    24    32    40    1
    25    41    42    1
    26    41    43    1
    27    15    19    2
    28    16    22    2
    29    17    12    1
    30    17    19   ar
    31    17    20   ar
    32    18    19   ar
    33    18    22   ar
    34    18    23    1
    35     9    10    1
    36     9    11    1
    37    10    12    1
    38    11     5    1
    39    33    34    1
    40    33    35    1
    41    34    36    1
    42    35    37    1
    43    36    42    1
    44    20    21   ar
    45    21    22   ar
@<TRIPOS>MOLECULE
*****
 43 45 0 0 0
SMALL
GASTEIGER

@<TRIPOS>ATOM
      1 P          20.3272   71.8053   -1.9677 P.3     1  UNL1        0.2189
      2 O          20.5156   70.5950   -0.9107 O.co2   1  UNL1       -0.4371
      3 O          19.3391   72.8572   -1.5572 O.2     1  UNL1       -0.5170
      4 O          20.0138   71.0544   -3.3662 O.3     1  UNL1       -0.3112
      5 C          19.1595   69.9240   -3.3500 C.3     1  UNL1        0.1811
      6 O          17.5963   71.2028   -4.6518 O.3     1  UNL1       -0.3308
      7 O          15.4451   69.7065   -3.1942 O.3     1  UNL1       -0.3794
      8 O          15.5499   68.4115   -5.5918 O.3     1  UNL1       -0.3779
      9 C          16.7229   69.2491   -3.6339 C.3     1  UNL1        0.1713
     10 C          16.7232   69.0533   -5.1356 C.3     1  UNL1        0.1895
     11 C          17.7152   70.3925   -3.4620 C.3     1  UNL1        0.1764
     12 C          16.8420   70.4816   -5.6396 C.3     1  UNL1        0.2383
     13 H          14.7946   68.9932   -3.2941 H       1  UNL1        0.2105
     14 H          15.5204   67.5064   -5.2445 H       1  UNL1        0.2106
     15 O          15.5618   70.4255   -8.1567 O.2     1  UNL1       -0.2464
     16 O          19.5669   70.7986  -10.4065 O.2     1  UNL1       -0.2670
     17 N          17.5258   70.5628   -6.8994 N.ar    1  UNL1       -0.2551
     18 N          17.5571   70.6115   -9.2749 N.ar    1  UNL1       -0.2743
     19 C          16.7895   70.5248   -8.1064 C.ar    1  UNL1        0.3323
     20 C          18.9113   70.6790   -6.9296 C.ar    1  UNL1        0.0869
     21 C          19.6284   70.7593   -8.0523 C.ar    1  UNL1        0.0795
     22 C          18.9357   70.7268   -9.3566 C.ar    1  UNL1        0.2626
     23 H          17.0656   70.5866  -10.1279 H       1  UNL1        0.1734
     24 O          21.8368   72.3447   -2.1753 O.3     1  UNL1       -0.2703
     25 P          22.4141   73.8451   -2.3444 P.3     1  UNL1        0.2208
     26 O          24.0127   73.6182   -2.4471 O.co2   1  UNL1       -0.4371
     27 O          21.9916   74.7929   -1.2595 O.2     1  UNL1       -0.5170
     28 O          21.9690   74.2889   -3.8310 O.3     1  UNL1       -0.2858
     29 O          20.1039   73.8232   -5.2170 O.3     1  UNL1       -0.3258
     30 O          23.1171   73.4366   -8.0138 O.3     1  UNL1       -0.3794
     31 O          21.3844   75.7252   -8.1033 O.3     1  UNL1       -0.3794
     32 O          23.5240   72.4819   -5.3115 O.3     1  UNL1       -0.3775
     33 C          22.4685   73.9894   -6.8653 C.3     1  UNL1        0.1715
     34 C          21.1247   74.5722   -7.3075 C.3     1  UNL1        0.1694
     35 C          22.2612   72.8860   -5.8295 C.3     1  UNL1        0.1967
     36 C          20.2564   74.9426   -6.0976 C.3     1  UNL1        0.1761
     37 C          21.3437   73.3424   -4.6938 C.3     1  UNL1        0.2704
     38 H          23.2521   74.1322   -8.6751 H       1  UNL1        0.2105
     39 H          21.9339   75.4778   -8.8636 H       1  UNL1        0.2105
     40 H          24.0955   72.1950   -6.0401 H       1  UNL1        0.2106
     41 O          18.9170   76.7114   -6.9841 O.3     1  UNL1       -0.3794
     42 C          18.8528   75.3780   -6.5128 C.3     1  UNL1        0.1693
     43 H          18.0307   77.0019   -7.2522 H       1  UNL1        0.2105
@<TRIPOS>UNITY_ATOM_ATTR
2 1
charge -1
26 1
charge -1
@<TRIPOS>BOND
     1    25    28    1
     2    25    24    1
     3    25    26    1
     4    25    27    2
     5     1     4    1
     6     1    24    1
     7     1     2    1
     8     1     3    2
     9     6    11    1
    10     6    12    1
    11    29    36    1
    12    29    37    1
    13     7     9    1
    14     7    13    1
    15     8    10    1
    16     8    14    1
    17    28    37    1
    18     4     5    1
    19    30    33    1
    20    30    38    1
    21    31    34    1
    22    31    39    1
    23    32    35    1
    24    32    40    1
    25    41    42    1
    26    41    43    1
    27    15    19    2
    28    16    22    2
    29    17    12    1
    30    17    19   ar
    31    17    20   ar
    32    18    19   ar
    33    18    22   ar
    34    18    23    1
    35     9    10    1
    36     9    11    1
    37    10    12    1
    38    11     5    1
    39    33    34    1
    40    33    35    1
    41    34    36    1
    42    35    37    1
    43    36    42    1
    44    20    21   ar
    45    21    22   ar
@<TRIPOS>MOLECULE
*****
 43 45 0 0 0
SMALL
GASTEIGER

@<TRIPOS>ATOM
      1 P          23.0251   72.9184   -4.0624 P.3     1  UNL1        0.2189
      2 O          24.0813   71.7460   -3.7059 O.co2   1  UNL1       -0.4371
      3 O          23.5890   74.3087   -4.0372 O.2     1  UNL1       -0.5170
      4 O          21.7867   72.6442   -3.0578 O.3     1  UNL1       -0.3112
      5 C          21.2998   71.3196   -2.9306 C.3     1  UNL1        0.1811
      6 O          20.6258   70.6258   -0.7311 O.3     1  UNL1       -0.3308
      7 O          18.3978   72.6159   -0.9897 O.3     1  UNL1       -0.3794
      8 O          20.1993   73.9400    0.5716 O.3     1  UNL1       -0.3779
      9 C          19.7399   72.6970   -1.4668 C.3     1  UNL1        0.1713
     10 C          20.6914   72.9586   -0.3180 C.3     1  UNL1        0.1895
     11 C          20.1622   71.3046   -1.9188 C.3     1  UNL1        0.1764
     12 C          20.7943   71.5858    0.3248 C.3     1  UNL1        0.2383
     13 H          18.1058   73.4935   -0.6957 H       1  UNL1        0.2105
     14 H          20.1524   74.7951    0.1161 H       1  UNL1        0.2106
     15 O          21.3263   72.0626    3.0575 O.2     1  UNL1       -0.2464
     16 O          25.7143   70.7207    2.6258 O.2     1  UNL1       -0.2670
     17 N          22.0669   71.3693    0.9532 N.ar    1  UNL1       -0.2551
     18 N          23.5107   71.3939    2.8403 N.ar    1  UNL1       -0.2743
     19 C          22.2292   71.6409    2.3317 C.ar    1  UNL1        0.3323
     20 C          23.1373   70.8923    0.2044 C.ar    1  UNL1        0.0869
     21 C          24.3534   70.6632    0.7042 C.ar    1  UNL1        0.0795
     22 C          24.6070   70.9213    2.1364 C.ar    1  UNL1        0.2626
     23 H          23.6474   71.5763    3.7984 H       1  UNL1        0.1734
     24 O          22.4390   72.4560   -5.4962 O.3     1  UNL1       -0.2703
     25 P          21.5216   73.2408   -6.5711 P.3     1  UNL1        0.2208
     26 O          22.1814   72.8321   -7.9906 O.co2   1  UNL1       -0.4371
     27 O          21.4268   74.7205   -6.3353 O.2     1  UNL1       -0.5170
     28 O          20.1055   72.4668   -6.5418 O.3     1  UNL1       -0.2858
     29 O          19.4250   70.3625   -5.6902 O.3     1  UNL1       -0.3258
     30 O          17.3305   70.3427   -9.2488 O.3     1  UNL1       -0.3794
     31 O          15.9193   70.7122   -6.7749 O.3     1  UNL1       -0.3794
     32 O          20.0053   71.4455   -9.1537 O.3     1  UNL1       -0.3775
     33 C          17.9106   70.9314   -8.0816 C.3     1  UNL1        0.1715
     34 C          17.2755   70.2818   -6.8506 C.3     1  UNL1        0.1694
     35 C          19.4190   70.6910   -8.0984 C.3     1  UNL1        0.1967
     36 C          18.0300   70.6651   -5.5705 C.3     1  UNL1        0.1761
     37 C          20.0646   71.0592   -6.7613 C.3     1  UNL1        0.2704
     38 H          16.3728   70.4922   -9.2445 H       1  UNL1        0.2105
     39 H          15.4542   70.4645   -7.5895 H       1  UNL1        0.2105
     40 H          19.5883   71.2030   -9.9947 H       1  UNL1        0.2106
     41 O          17.0098   68.6532   -4.7828 O.3     1  UNL1       -0.3794
     42 C          17.5117   69.9048   -4.3517 C.3     1  UNL1        0.1693
     43 H          16.6767   68.1581   -4.0175 H       1  UNL1        0.2105
@<TRIPOS>UNITY_ATOM_ATTR
2 1
charge -1
26 1
charge -1
@<TRIPOS>BOND
     1    25    28    1
     2    25    24    1
     3    25    26    1
     4    25    27    2
     5     1     4    1
     6     1    24    1
     7     1     2    1
     8     1     3    2
     9     6    11    1
    10     6    12    1
    11    29    36    1
    12    29    37    1
    13     7     9    1
    14     7    13    1
    15     8    10    1
    16     8    14    1
    17    28    37    1
    18     4     5    1
    19    30    33    1
    20    30    38    1
    21    31    34    1
    22    31    39    1
    23    32    35    1
    24    32    40    1
    25    41    42    1
    26    41    43    1
    27    15    19    2
    28    16    22    2
    29    17    12    1
    30    17    19   ar
    31    17    20   ar
    32    18    19   ar
    33    18    22   ar
    34    18    23    1
    35     9    10    1
    36     9    11    1
    37    10    12    1
    38    11     5    1
    39    33    34    1
    40    33    35    1
    41    34    36    1
    42    35    37    1
    43    36    42    1
    44    20    21   ar
    45    21    22   ar
@<TRIPOS>MOLECULE
*****
 43 45 0 0 0
SMALL
GASTEIGER

@<TRIPOS>ATOM
      1 P          23.5267   72.3458   -3.5550 P.3     1  UNL1        0.2189
      2 O          24.1280   70.8795   -3.2294 O.co2   1  UNL1       -0.4371
      3 O          24.5439   73.3726   -3.9580 O.2     1  UNL1       -0.5170
      4 O          22.6470   72.7045   -2.2454 O.3     1  UNL1       -0.3112
      5 C          23.2984   72.7623   -0.9883 C.3     1  UNL1        0.1811
      6 O          24.3121   71.0939    0.4126 O.3     1  UNL1       -0.3308
      7 O          21.5207   70.2149    1.0657 O.3     1  UNL1       -0.3794
      8 O          22.2069   71.6897    3.2545 O.3     1  UNL1       -0.3779
      9 C          22.0216   71.5307    0.8354 C.3     1  UNL1        0.1713
     10 C          22.8315   72.0008    2.0257 C.3     1  UNL1        0.1895
     11 C          23.0810   71.4451   -0.2563 C.3     1  UNL1        0.1764
     12 C          24.1408   71.2554    1.8301 C.3     1  UNL1        0.2383
     13 H          20.8422   70.2441    1.7591 H       1  UNL1        0.2105
     14 H          21.3787   72.1885    3.3318 H       1  UNL1        0.2106
     15 O          24.1168   74.0077    2.4646 O.2     1  UNL1       -0.2464
     16 O          28.5140   73.9156    3.8422 O.2     1  UNL1       -0.2670
     17 N          25.2653   71.9763    2.3566 N.ar    1  UNL1       -0.2551
     18 N          26.3062   73.9595    3.1502 N.ar    1  UNL1       -0.2743
     19 C          25.1490   73.3570    2.6405 C.ar    1  UNL1        0.3323
     20 C          26.4667   71.3147    2.5863 C.ar    1  UNL1        0.0869
     21 C          27.5614   71.9040    3.0716 C.ar    1  UNL1        0.0795
     22 C          27.5240   73.3449    3.3947 C.ar    1  UNL1        0.2626
     23 H          26.2488   74.9210    3.3551 H       1  UNL1        0.1734
     24 O          22.4024   72.0371   -4.6746 O.3     1  UNL1       -0.2703
     25 P          21.6697   73.0081   -5.7392 P.3     1  UNL1        0.2208
     26 O          22.5395   72.8036   -7.0879 O.co2   1  UNL1       -0.4371
     27 O          21.5507   74.4356   -5.2896 O.2     1  UNL1       -0.5170
     28 O          20.2605   72.2849   -6.0493 O.3     1  UNL1       -0.2858
     29 O          19.5930   70.0765   -5.5067 O.3     1  UNL1       -0.3258
     30 O          17.5597   70.5230   -9.0728 O.3     1  UNL1       -0.3794
     31 O          16.1020   70.5347   -6.5983 O.3     1  UNL1       -0.3794
     32 O          20.2179   71.6305   -8.7778 O.3     1  UNL1       -0.3775
     33 C          18.1122   70.9521   -7.8254 C.3     1  UNL1        0.1715
     34 C          17.4648   70.1330   -6.7070 C.3     1  UNL1        0.1694
     35 C          19.6237   70.7322   -7.8469 C.3     1  UNL1        0.1967
     36 C          18.1924   70.3450   -5.3726 C.3     1  UNL1        0.1761
     37 C          20.2416   70.9203   -6.4602 C.3     1  UNL1        0.2704
     38 H          16.6002   70.6604   -9.0658 H       1  UNL1        0.2105
     39 H          15.6541   70.3961   -7.4476 H       1  UNL1        0.2105
     40 H          19.8185   71.5013   -9.6517 H       1  UNL1        0.2106
     41 O          18.4504   69.6014   -3.1167 O.3     1  UNL1       -0.3794
     42 C          17.6634   69.4193   -4.2793 C.3     1  UNL1        0.1693
     43 H          18.1250   69.0187   -2.4122 H       1  UNL1        0.2105
@<TRIPOS>UNITY_ATOM_ATTR
2 1
charge -1
26 1
charge -1
@<TRIPOS>BOND
     1    25    28    1
     2    25    24    1
     3    25    26    1
     4    25    27    2
     5     1     4    1
     6     1    24    1
     7     1     2    1
     8     1     3    2
     9     6    11    1
    10     6    12    1
    11    29    36    1
    12    29    37    1
    13     7     9    1
    14     7    13    1
    15     8    10    1
    16     8    14    1
    17    28    37    1
    18     4     5    1
    19    30    33    1
    20    30    38    1
    21    31    34    1
    22    31    39    1
    23    32    35    1
    24    32    40    1
    25    41    42    1
    26    41    43    1
    27    15    19    2
    28    16    22    2
    29    17    12    1
    30    17    19   ar
    31    17    20   ar
    32    18    19   ar
    33    18    22   ar
    34    18    23    1
    35     9    10    1
    36     9    11    1
    37    10    12    1
    38    11     5    1
    39    33    34    1
    40    33    35    1
    41    34    36    1
    42    35    37    1
    43    36    42    1
    44    20    21   ar
    45    21    22   ar
