@<TRIPOS>MOLECULE
UD2
 46 48 0 0 0
SMALL
GASTEIGER

@<TRIPOS>ATOM
      1 P          20.7773   71.0525   -3.1025 P.3     1  UNL1        0.2189
      2 O          21.0019   70.4438   -1.6292 O.3     1  UNL1       -0.4371
      3 O          20.8285   69.9616   -4.1006 O.2     1  UNL1       -0.5170
      4 O          19.3399   71.7756   -3.1708 O.3     1  UNL1       -0.3112
      5 C          18.1896   71.2850   -2.4798 C.3     1  UNL1        0.1811
      6 C          16.8178   70.6319   -5.7399 C.3     1  UNL1        0.2383
      7 C          16.9300   69.2352   -5.0774 C.3     1  UNL1        0.1895
      8 O          15.9054   68.3607   -5.5541 O.3     1  UNL1       -0.3779
      9 C          16.7197   69.5678   -3.5798 C.3     1  UNL1        0.1713
     10 C          17.0491   71.0693   -3.4777 C.3     1  UNL1        0.1764
     11 O          17.4534   71.5085   -4.7843 O.3     1  UNL1       -0.3308
     12 O          15.3638   69.3258   -3.2007 O.3     1  UNL1       -0.3794
     13 H          15.9339   67.4744   -5.1691 H       1  UNL1        0.2106
     14 H          15.0846   68.4059   -3.3015 H       1  UNL1        0.2105
     15 N          17.5331   70.6555   -7.0177 N.ar    1  UNL1       -0.2551
     16 C          16.8491   70.5146   -8.1671 C.ar    1  UNL1        0.3323
     17 N          17.4807   70.5323   -9.3558 N.ar    1  UNL1       -0.2743
     18 C          18.8183   70.6947   -9.4113 C.ar    1  UNL1        0.2626
     19 C          19.5507   70.8453   -8.2092 C.ar    1  UNL1        0.0795
     20 C          18.8912   70.8279   -7.0319 C.ar    1  UNL1        0.0869
     21 O          15.6427   70.3676   -8.1321 O.2     1  UNL1       -0.2464
     22 O          19.3911   70.7113  -10.4866 O.2     1  UNL1       -0.2670
     23 H          16.9725   70.4281  -10.1749 H       1  UNL1        0.1734
     24 O          21.9336   72.1270   -3.4215 O.3     1  UNL1       -0.2703
     25 P          23.5237   72.1658   -3.1705 P.3     1  UNL1        0.2208
     26 O          24.0998   70.6621   -3.1479 O.3     1  UNL1       -0.4371
     27 O          24.1765   72.9273   -4.2578 O.2     1  UNL1       -0.5170
     28 O          23.8268   72.8784   -1.7587 O.3     1  UNL1       -0.2865
     29 C          22.9053   73.7638   -1.1199 C.3     1  UNL1        0.2611
     30 C          23.6777   74.8564   -0.3767 C.3     1  UNL1        0.1582
     31 C          24.5351   74.2101    0.7158 C.3     1  UNL1        0.1625
     32 C          23.6296   73.4020    1.6493 C.3     1  UNL1        0.1686
     33 C          22.8589   72.3653    0.8277 C.3     1  UNL1        0.1760
     34 O          25.2036   75.2290    1.4630 O.3     1  UNL1       -0.3801
     35 O          22.7074   74.2796    2.2979 O.3     1  UNL1       -0.3794
     36 O          22.1067   73.0296   -0.1896 O.3     1  UNL1       -0.3263
     37 H          25.7664   74.8905    2.1728 H       1  UNL1        0.2105
     38 H          22.1005   73.8342    2.9055 H       1  UNL1        0.2105
     39 C          24.6608   76.9117   -1.2408 C.2     1  UNL1        0.2231
     40 C          25.5497   77.6476   -2.2088 C.3     1  UNL1        0.0946
     41 N          24.5423   75.5715   -1.3188 N.am    1  UNL1       -0.2994
     42 O          24.0509   77.5253   -0.3902 O.2     1  UNL1       -0.2751
     43 H          25.0290   75.0806   -1.9993 H       1  UNL1        0.1496
     44 C          21.9075   71.5936    1.7441 C.3     1  UNL1        0.1693
     45 O          21.5878   70.3345    1.1483 O.3     1  UNL1       -0.3794
     46 H          20.9870   69.7905    1.6757 H       1  UNL1        0.2105
@<TRIPOS>BOND
     1    29    30    1
     2    30    41    1
     3    30    31    1
     4    31    34    1
     5    31    32    1
     6    32    35    1
     7    32    33    1
     8    33    36    1
     9    33    44    1
    10    39    40    1
    11    39    42    2
    12    39    41   am
    13    41    43    1
    14    29    28    1
    15    34    37    1
    16    35    38    1
    17    29    36    1
    18    44    45    1
    19    45    46    1
    20    15     6    1
    21    15    16   ar
    22    16    21    2
    23    16    17   ar
    24    17    23    1
    25    17    18   ar
    26    18    19   ar
    27    19    20   ar
    28    15    20   ar
    29    18    22    2
    30     6     7    1
    31     6    11    1
    32     7     9    1
    33     7     8    1
    34     8    13    1
    35     9    10    1
    36     9    12    1
    37    10     5    1
    38    10    11    1
    39    12    14    1
    40     5     4    1
    41     4     1    1
    42     1     2    1
    43     1    24    1
    44     1     3    2
    45    24    25    1
    46    28    25    1
    47    25    26    1
    48    25    27    2
@<TRIPOS>MOLECULE
UD2
 46 48 0 0 0
SMALL
GASTEIGER

@<TRIPOS>ATOM
      1 P          20.1505   72.6026   -1.7429 P.3     1  UNL1        0.2189
      2 O          20.1459   73.9895   -2.5602 O.3     1  UNL1       -0.4371
      3 O          19.1400   72.6618   -0.6639 O.2     1  UNL1       -0.5170
      4 O          19.7982   71.3898   -2.7423 O.3     1  UNL1       -0.3112
      5 C          18.8445   70.3741   -2.4258 C.3     1  UNL1        0.1811
      6 C          17.1176   70.4551   -5.5798 C.3     1  UNL1        0.2383
      7 C          16.9663   68.9924   -5.0902 C.3     1  UNL1        0.1895
      8 O          15.7396   68.4240   -5.5526 O.3     1  UNL1       -0.3779
      9 C          16.9500   69.1645   -3.5515 C.3     1  UNL1        0.1713
     10 C          17.6121   70.5361   -3.3190 C.3     1  UNL1        0.1764
     11 O          18.0031   71.0457   -4.6038 O.3     1  UNL1       -0.3308
     12 O          15.6072   69.1677   -3.0641 O.3     1  UNL1       -0.3794
     13 H          15.5995   67.5093   -5.2726 H       1  UNL1        0.2106
     14 H          15.1234   68.3487   -3.2364 H       1  UNL1        0.2105
     15 N          17.7208   70.4927   -6.9139 N.ar    1  UNL1       -0.2551
     16 C          16.9324   70.4570   -8.0030 C.ar    1  UNL1        0.3323
     17 N          17.4596   70.4900   -9.2412 N.ar    1  UNL1       -0.2743
     18 C          18.7958   70.5617   -9.4083 C.ar    1  UNL1        0.2626
     19 C          19.6375   70.6010   -8.2707 C.ar    1  UNL1        0.0795
     20 C          19.0816   70.5708   -7.0412 C.ar    1  UNL1        0.0869
     21 O          15.7258   70.3926   -7.8673 O.2     1  UNL1       -0.2464
     22 O          19.2742   70.5921  -10.5285 O.2     1  UNL1       -0.2670
     23 H          16.8768   70.4623  -10.0157 H       1  UNL1        0.1734
     24 O          21.6078   72.3623   -1.1013 O.3     1  UNL1       -0.2703
     25 P          22.1405   71.5797    0.2013 P.3     1  UNL1        0.2208
     26 O          21.0861   70.4313    0.6053 O.3     1  UNL1       -0.4371
     27 O          23.4516   70.9623   -0.0957 O.2     1  UNL1       -0.5170
     28 O          22.2994   72.6167    1.4227 O.3     1  UNL1       -0.2865
     29 C          22.5556   72.2037    2.7663 C.3     1  UNL1        0.2611
     30 C          21.9628   73.2273    3.7376 C.3     1  UNL1        0.1582
     31 C          22.6535   74.5781    3.5266 C.3     1  UNL1        0.1625
     32 C          24.1626   74.4031    3.7174 C.3     1  UNL1        0.1686
     33 C          24.6707   73.3339    2.7465 C.3     1  UNL1        0.1760
     34 O          22.1579   75.5215    4.4793 O.3     1  UNL1       -0.3801
     35 O          24.4301   73.9954    5.0603 O.3     1  UNL1       -0.3794
     36 O          23.9663   72.1117    2.9751 O.3     1  UNL1       -0.3263
     37 H          22.5523   76.4012    4.4029 H       1  UNL1        0.2105
     38 H          25.3692   73.8645    5.2527 H       1  UNL1        0.2105
     39 C          20.0781   74.3336    2.6596 C.2     1  UNL1        0.2231
     40 C          18.6017   74.4777    2.3990 C.3     1  UNL1        0.0946
     41 N          20.5264   73.3670    3.4848 N.am    1  UNL1       -0.2994
     42 O          20.8649   75.0880    2.1266 O.2     1  UNL1       -0.2751
     43 H          19.8977   72.7643    3.9120 H       1  UNL1        0.1496
     44 C          26.1672   73.1103    2.9721 C.3     1  UNL1        0.1693
     45 O          26.7625   74.3167    3.4544 O.3     1  UNL1       -0.3794
     46 H          27.7127   74.2482    3.6198 H       1  UNL1        0.2105
@<TRIPOS>BOND
     1    29    30    1
     2    30    41    1
     3    30    31    1
     4    31    34    1
     5    31    32    1
     6    32    35    1
     7    32    33    1
     8    33    36    1
     9    33    44    1
    10    39    40    1
    11    39    42    2
    12    39    41   am
    13    41    43    1
    14    29    28    1
    15    34    37    1
    16    35    38    1
    17    29    36    1
    18    44    45    1
    19    45    46    1
    20    15     6    1
    21    15    16   ar
    22    16    21    2
    23    16    17   ar
    24    17    23    1
    25    17    18   ar
    26    18    19   ar
    27    19    20   ar
    28    15    20   ar
    29    18    22    2
    30     6     7    1
    31     6    11    1
    32     7     9    1
    33     7     8    1
    34     8    13    1
    35     9    10    1
    36     9    12    1
    37    10     5    1
    38    10    11    1
    39    12    14    1
    40     5     4    1
    41     4     1    1
    42     1     2    1
    43     1    24    1
    44     1     3    2
    45    24    25    1
    46    28    25    1
    47    25    26    1
    48    25    27    2
@<TRIPOS>MOLECULE
UD2
 46 48 0 0 0
SMALL
GASTEIGER

@<TRIPOS>ATOM
      1 P          16.2431   69.7441   -2.2146 P.3     1  UNL1        0.2189
      2 O          15.9644   69.1412   -3.6809 O.3     1  UNL1       -0.4371
      3 O          15.6337   71.0881   -2.1091 O.2     1  UNL1       -0.5170
      4 O          15.5972   68.7732   -1.1037 O.3     1  UNL1       -0.3112
      5 C          14.4974   69.1606   -0.2779 C.3     1  UNL1        0.1811
      6 C          12.9567   66.9659    2.1193 C.3     1  UNL1        0.2383
      7 C          11.8181   67.9194    1.6757 C.3     1  UNL1        0.1895
      8 O          10.5510   67.2615    1.7318 O.3     1  UNL1       -0.3779
      9 C          12.2114   68.2368    0.2121 C.3     1  UNL1        0.1713
     10 C          13.7167   67.9149    0.1484 C.3     1  UNL1        0.1764
     11 O          14.1237   67.5098    1.4651 O.3     1  UNL1       -0.3308
     12 O          11.4828   67.4045   -0.6919 O.3     1  UNL1       -0.3794
     13 H           9.8067   67.8174    1.4640 H       1  UNL1        0.2106
     14 H          10.5243   67.5234   -0.6516 H       1  UNL1        0.2105
     15 N          13.1186   66.9979    3.5745 N.ar    1  UNL1       -0.2551
     16 C          12.9020   65.8823    4.2938 C.ar    1  UNL1        0.3323
     17 N          13.0432   65.8828    5.6325 N.ar    1  UNL1       -0.2743
     18 C          13.4084   67.0102    6.2761 C.ar    1  UNL1        0.2626
     19 C          13.6406   68.1915    5.5313 C.ar    1  UNL1        0.0795
     20 C          13.4957   68.1612    4.1898 C.ar    1  UNL1        0.0869
     21 O          12.5724   64.8584    3.7268 O.2     1  UNL1       -0.2464
     22 O          13.5369   67.0119    7.4877 O.2     1  UNL1       -0.2670
     23 H          12.8819   65.0700    6.1360 H       1  UNL1        0.1734
     24 O          17.8313   69.8540   -1.9721 O.3     1  UNL1       -0.2703
     25 P          18.9083   71.0392   -2.1399 P.3     1  UNL1        0.2208
     26 O          18.4621   72.3002   -1.2429 O.3     1  UNL1       -0.4371
     27 O          20.2375   70.5648   -1.6965 O.2     1  UNL1       -0.5170
     28 O          18.9840   71.4804   -3.6867 O.3     1  UNL1       -0.2865
     29 C          19.7637   70.7810   -4.6584 C.3     1  UNL1        0.2611
     30 C          20.5567   71.7862   -5.4972 C.3     1  UNL1        0.1582
     31 C          19.5789   72.6931   -6.2507 C.3     1  UNL1        0.1625
     32 C          18.6517   71.8262   -7.1069 C.3     1  UNL1        0.1686
     33 C          17.9319   70.8193   -6.2057 C.3     1  UNL1        0.1760
     34 O          20.3098   73.5870   -7.0933 O.3     1  UNL1       -0.3801
     35 O          19.4214   71.1265   -8.0862 O.3     1  UNL1       -0.3794
     36 O          18.8983   70.0285   -5.5110 O.3     1  UNL1       -0.3263
     37 H          19.7524   74.1926   -7.6009 H       1  UNL1        0.2105
     38 H          18.8971   70.5557   -8.6653 H       1  UNL1        0.2105
     39 C          22.6764   72.8626   -4.9626 C.2     1  UNL1        0.2231
     40 C          23.5445   73.6988   -4.0593 C.3     1  UNL1        0.0946
     41 N          21.4005   72.5994   -4.6179 N.am    1  UNL1       -0.2994
     42 O          23.1257   72.4254   -6.0014 O.2     1  UNL1       -0.2751
     43 H          21.0412   72.9479   -3.7869 H       1  UNL1        0.1496
     44 C          17.0483   69.9099   -7.0616 C.3     1  UNL1        0.1693
     45 O          15.6847   70.0528   -6.6585 O.3     1  UNL1       -0.3794
     46 H          15.0662   69.5039   -7.1597 H       1  UNL1        0.2105
@<TRIPOS>BOND
     1    29    30    1
     2    30    41    1
     3    30    31    1
     4    31    34    1
     5    31    32    1
     6    32    35    1
     7    32    33    1
     8    33    36    1
     9    33    44    1
    10    39    40    1
    11    39    42    2
    12    39    41   am
    13    41    43    1
    14    29    28    1
    15    34    37    1
    16    35    38    1
    17    29    36    1
    18    44    45    1
    19    45    46    1
    20    15     6    1
    21    15    16   ar
    22    16    21    2
    23    16    17   ar
    24    17    23    1
    25    17    18   ar
    26    18    19   ar
    27    19    20   ar
    28    15    20   ar
    29    18    22    2
    30     6     7    1
    31     6    11    1
    32     7     9    1
    33     7     8    1
    34     8    13    1
    35     9    10    1
    36     9    12    1
    37    10     5    1
    38    10    11    1
    39    12    14    1
    40     5     4    1
    41     4     1    1
    42     1     2    1
    43     1    24    1
    44     1     3    2
    45    24    25    1
    46    28    25    1
    47    25    26    1
    48    25    27    2
@<TRIPOS>MOLECULE
UD2
 46 48 0 0 0
SMALL
GASTEIGER

@<TRIPOS>ATOM
      1 P          15.8319   70.8551   -2.7877 P.3     1  UNL1        0.2189
      2 O          14.7272   72.0178   -2.6497 O.3     1  UNL1       -0.4371
      3 O          17.0182   71.2017   -1.9743 O.2     1  UNL1       -0.5170
      4 O          15.2128   69.4623   -2.2675 O.3     1  UNL1       -0.3112
      5 C          15.0188   69.1669   -0.8831 C.3     1  UNL1        0.1811
      6 C          12.1715   68.0805    1.0271 C.3     1  UNL1        0.2383
      7 C          12.4703   69.5083    1.5508 C.3     1  UNL1        0.1895
      8 O          11.2708   70.1558    1.9795 O.3     1  UNL1       -0.3779
      9 C          13.0528   70.2004    0.2941 C.3     1  UNL1        0.1713
     10 C          13.5214   69.0331   -0.5954 C.3     1  UNL1        0.1764
     11 O          13.2691   67.8170    0.1264 O.3     1  UNL1       -0.3308
     12 O          12.0424   70.9614   -0.3697 O.3     1  UNL1       -0.3794
     13 H          11.4060   71.0518    2.3163 H       1  UNL1        0.2106
     14 H          11.6693   71.6739    0.1667 H       1  UNL1        0.2105
     15 N          12.1662   67.1171    2.1303 N.ar    1  UNL1       -0.2551
     16 C          13.3313   66.6447    2.6081 C.ar    1  UNL1        0.3323
     17 N          13.3563   65.7584    3.6210 N.ar    1  UNL1       -0.2743
     18 C          12.2046   65.3298    4.1764 C.ar    1  UNL1        0.2626
     19 C          10.9710   65.8196    3.6840 C.ar    1  UNL1        0.0795
     20 C          10.9758   66.7107    2.6704 C.ar    1  UNL1        0.0869
     21 O          14.3775   67.0226    2.1170 O.2     1  UNL1       -0.2464
     22 O          12.2258   64.5280    5.0935 O.2     1  UNL1       -0.2670
     23 H          14.2050   65.4270    3.9526 H       1  UNL1        0.1734
     24 O          16.2644   70.7059   -4.3317 O.3     1  UNL1       -0.2703
     25 P          17.1799   69.6561   -5.1397 P.3     1  UNL1        0.2208
     26 O          17.5671   68.4274   -4.1733 O.3     1  UNL1       -0.4371
     27 O          16.4312   69.1461   -6.3092 O.2     1  UNL1       -0.5170
     28 O          18.5231   70.3897   -5.6401 O.3     1  UNL1       -0.2865
     29 C          18.7162   71.8028   -5.5553 C.3     1  UNL1        0.2611
     30 C          19.6884   72.2525   -6.6486 C.3     1  UNL1        0.1582
     31 C          21.0468   71.5828   -6.4188 C.3     1  UNL1        0.1625
     32 C          21.5473   71.9363   -5.0157 C.3     1  UNL1        0.1686
     33 C          20.5032   71.4986   -3.9851 C.3     1  UNL1        0.1760
     34 O          21.9817   72.0538   -7.3922 O.3     1  UNL1       -0.3801
     35 O          21.7492   73.3476   -4.9221 O.3     1  UNL1       -0.3794
     36 O          19.2559   72.1333   -4.2740 O.3     1  UNL1       -0.3263
     37 H          22.8650   71.6697   -7.3066 H       1  UNL1        0.2105
     38 H          22.0664   73.6438   -4.0574 H       1  UNL1        0.2105
     39 C          19.5533   70.6991   -8.5211 C.2     1  UNL1        0.2231
     40 C          19.0156   70.2960   -9.8691 C.3     1  UNL1        0.0946
     41 N          19.1651   71.8612   -7.9599 N.am    1  UNL1       -0.2994
     42 O          20.3365   69.9775   -7.9398 O.2     1  UNL1       -0.2751
     43 H          18.5396   72.4389   -8.4248 H       1  UNL1        0.1496
     44 C          20.9688   71.9020   -2.5848 C.3     1  UNL1        0.1693
     45 O          20.8211   70.7935   -1.6951 O.3     1  UNL1       -0.3794
     46 H          21.0978   70.9776   -0.7870 H       1  UNL1        0.2105
@<TRIPOS>BOND
     1    29    30    1
     2    30    41    1
     3    30    31    1
     4    31    34    1
     5    31    32    1
     6    32    35    1
     7    32    33    1
     8    33    36    1
     9    33    44    1
    10    39    40    1
    11    39    42    2
    12    39    41   am
    13    41    43    1
    14    29    28    1
    15    34    37    1
    16    35    38    1
    17    29    36    1
    18    44    45    1
    19    45    46    1
    20    15     6    1
    21    15    16   ar
    22    16    21    2
    23    16    17   ar
    24    17    23    1
    25    17    18   ar
    26    18    19   ar
    27    19    20   ar
    28    15    20   ar
    29    18    22    2
    30     6     7    1
    31     6    11    1
    32     7     9    1
    33     7     8    1
    34     8    13    1
    35     9    10    1
    36     9    12    1
    37    10     5    1
    38    10    11    1
    39    12    14    1
    40     5     4    1
    41     4     1    1
    42     1     2    1
    43     1    24    1
    44     1     3    2
    45    24    25    1
    46    28    25    1
    47    25    26    1
    48    25    27    2
@<TRIPOS>MOLECULE
UD2
 46 48 0 0 0
SMALL
GASTEIGER

@<TRIPOS>ATOM
      1 P          20.7142   70.8440   -3.3890 P.3     1  UNL1        0.2189
      2 O          20.4501   69.4794   -4.2011 O.3     1  UNL1       -0.4371
      3 O          21.7567   71.6354   -4.0787 O.2     1  UNL1       -0.5170
      4 O          19.3509   71.6984   -3.3179 O.3     1  UNL1       -0.3112
      5 C          18.1925   71.2559   -2.6081 C.3     1  UNL1        0.1811
      6 C          16.7947   70.5552   -5.8473 C.3     1  UNL1        0.2383
      7 C          16.8960   69.1704   -5.1587 C.3     1  UNL1        0.1895
      8 O          15.8594   68.2980   -5.6127 O.3     1  UNL1       -0.3779
      9 C          16.6980   69.5338   -3.6666 C.3     1  UNL1        0.1713
     10 C          17.0440   71.0334   -3.5952 C.3     1  UNL1        0.1764
     11 O          17.4452   71.4431   -4.9123 O.3     1  UNL1       -0.3308
     12 O          15.3419   69.3137   -3.2752 O.3     1  UNL1       -0.3794
     13 H          15.8808   67.4189   -5.2110 H       1  UNL1        0.2106
     14 H          15.0523   68.3950   -3.3568 H       1  UNL1        0.2105
     15 N          17.5028   70.5468   -7.1293 N.ar    1  UNL1       -0.2551
     16 C          16.8023   70.5361   -8.2774 C.ar    1  UNL1        0.3323
     17 N          17.4268   70.5280   -9.4699 N.ar    1  UNL1       -0.2743
     18 C          18.7740   70.5324   -9.5306 C.ar    1  UNL1        0.2626
     19 C          19.5239   70.5447   -8.3300 C.ar    1  UNL1        0.0795
     20 C          18.8716   70.5569   -7.1485 C.ar    1  UNL1        0.0869
     21 O          15.5871   70.5322   -8.2377 O.2     1  UNL1       -0.2464
     22 O          19.3404   70.5255  -10.6093 O.2     1  UNL1       -0.2670
     23 H          16.9065   70.5191  -10.2881 H       1  UNL1        0.1734
     24 O          21.2056   70.4938   -1.8960 O.3     1  UNL1       -0.2703
     25 P          21.8749   71.3521   -0.7092 P.3     1  UNL1        0.2208
     26 O          23.4781   71.2253   -0.7941 O.3     1  UNL1       -0.4371
     27 O          21.4850   72.7725   -0.8469 O.2     1  UNL1       -0.5170
     28 O          21.3662   70.7908    0.7116 O.3     1  UNL1       -0.2865
     29 C          21.5446   71.5012    1.9383 C.3     1  UNL1        0.2611
     30 C          21.4383   73.0058    1.6779 C.3     1  UNL1        0.1582
     31 C          22.5611   73.4311    0.7266 C.3     1  UNL1        0.1625
     32 C          23.9093   73.0418    1.3390 C.3     1  UNL1        0.1686
     33 C          23.9203   71.5355    1.6126 C.3     1  UNL1        0.1760
     34 O          22.5141   74.8469    0.5358 O.3     1  UNL1       -0.3801
     35 O          24.1001   73.7517    2.5642 O.3     1  UNL1       -0.3794
     36 O          22.8335   71.2022    2.4784 O.3     1  UNL1       -0.3263
     37 H          23.1981   75.1863   -0.0577 H       1  UNL1        0.2105
     38 H          24.9361   73.5528    3.0087 H       1  UNL1        0.2105
     39 C          19.4425   74.3880    1.4680 C.2     1  UNL1        0.2231
     40 C          18.1081   74.6979    0.8420 C.3     1  UNL1        0.0946
     41 N          20.1402   73.3064    1.0687 N.am    1  UNL1       -0.2994
     42 O          19.8901   75.1123    2.3324 O.2     1  UNL1       -0.2751
     43 H          19.7823   72.7265    0.3783 H       1  UNL1        0.1496
     44 C          25.2415   71.1482    2.2796 C.3     1  UNL1        0.1693
     45 O          25.1394   69.8239    2.8071 O.3     1  UNL1       -0.3794
     46 H          25.9426   69.5116    3.2456 H       1  UNL1        0.2105
@<TRIPOS>BOND
     1    29    30    1
     2    30    41    1
     3    30    31    1
     4    31    34    1
     5    31    32    1
     6    32    35    1
     7    32    33    1
     8    33    36    1
     9    33    44    1
    10    39    40    1
    11    39    42    2
    12    39    41   am
    13    41    43    1
    14    29    28    1
    15    34    37    1
    16    35    38    1
    17    29    36    1
    18    44    45    1
    19    45    46    1
    20    15     6    1
    21    15    16   ar
    22    16    21    2
    23    16    17   ar
    24    17    23    1
    25    17    18   ar
    26    18    19   ar
    27    19    20   ar
    28    15    20   ar
    29    18    22    2
    30     6     7    1
    31     6    11    1
    32     7     9    1
    33     7     8    1
    34     8    13    1
    35     9    10    1
    36     9    12    1
    37    10     5    1
    38    10    11    1
    39    12    14    1
    40     5     4    1
    41     4     1    1
    42     1     2    1
    43     1    24    1
    44     1     3    2
    45    24    25    1
    46    28    25    1
    47    25    26    1
    48    25    27    2
@<TRIPOS>MOLECULE
UD2
 46 48 0 0 0
SMALL
GASTEIGER

@<TRIPOS>ATOM
      1 P          21.6742   72.5249   -6.1726 P.3     1  UNL1        0.2189
      2 O          20.7253   72.6779   -4.8813 O.3     1  UNL1       -0.4371
      3 O          23.0827   72.3968   -5.7382 O.2     1  UNL1       -0.5170
      4 O          21.2462   71.2112   -7.0002 O.3     1  UNL1       -0.3112
      5 C          20.5616   71.2707   -8.2528 C.3     1  UNL1        0.1811
      6 C          17.4059   70.1231   -6.9639 C.3     1  UNL1        0.2383
      7 C          17.0282   71.0965   -8.1093 C.3     1  UNL1        0.1895
      8 O          15.7994   70.7068   -8.7255 O.3     1  UNL1       -0.3779
      9 C          18.2159   70.9241   -9.0876 C.3     1  UNL1        0.1713
     10 C          19.3436   70.3445   -8.2124 C.3     1  UNL1        0.1764
     11 O          18.8408   70.2566   -6.8697 O.3     1  UNL1       -0.3308
     12 O          17.8734   70.0114  -10.1319 O.3     1  UNL1       -0.3794
     13 H          15.5204   71.2856   -9.4479 H       1  UNL1        0.2106
     14 H          17.1297   70.2989  -10.6784 H       1  UNL1        0.2105
     15 N          16.7662   70.5286   -5.7103 N.ar    1  UNL1       -0.2551
     16 C          16.4728   69.6012   -4.7815 C.ar    1  UNL1        0.3323
     17 N          15.8848   69.9454   -3.6205 N.ar    1  UNL1       -0.2743
     18 C          15.5809   71.2352   -3.3697 C.ar    1  UNL1        0.2626
     19 C          15.8851   72.2219   -4.3382 C.ar    1  UNL1        0.0795
     20 C          16.4785   71.8490   -5.4916 C.ar    1  UNL1        0.0869
     21 O          16.7413   68.4346   -4.9940 O.2     1  UNL1       -0.2464
     22 O          15.0491   71.5480   -2.3192 O.2     1  UNL1       -0.2670
     23 H          15.6790   69.2640   -2.9621 H       1  UNL1        0.1734
     24 O          21.5177   73.8241   -7.1110 O.3     1  UNL1       -0.2703
     25 P          22.0605   75.3377   -7.0243 P.3     1  UNL1        0.2208
     26 O          20.9708   76.3356   -7.6650 O.3     1  UNL1       -0.4371
     27 O          22.2880   75.7001   -5.6083 O.2     1  UNL1       -0.5170
     28 O          23.4442   75.4589   -7.8388 O.3     1  UNL1       -0.2865
     29 C          23.6699   76.4452   -8.8476 C.3     1  UNL1        0.2611
     30 C          24.7475   75.9496   -9.8150 C.3     1  UNL1        0.1582
     31 C          26.0603   75.7588   -9.0491 C.3     1  UNL1        0.1625
     32 C          26.4450   77.0809   -8.3795 C.3     1  UNL1        0.1686
     33 C          25.3016   77.5329   -7.4671 C.3     1  UNL1        0.1760
     34 O          27.0908   75.3666   -9.9588 O.3     1  UNL1       -0.3801
     35 O          26.6786   78.0732   -9.3805 O.3     1  UNL1       -0.3794
     36 O          24.1036   77.6615   -8.2354 O.3     1  UNL1       -0.3263
     37 H          27.9516   75.2272   -9.5408 H       1  UNL1        0.2105
     38 H          26.9266   78.9389   -9.0269 H       1  UNL1        0.2105
     39 C          24.5643   74.4182  -11.7014 C.2     1  UNL1        0.2231
     40 C          24.1367   73.1049  -12.3022 C.3     1  UNL1        0.0946
     41 N          24.3310   74.6720  -10.3987 N.am    1  UNL1       -0.2994
     42 O          25.1193   75.2485  -12.3904 O.2     1  UNL1       -0.2751
     43 H          23.8864   74.0088   -9.8477 H       1  UNL1        0.1496
     44 C          25.6532   78.8834   -6.8401 C.3     1  UNL1        0.1693
     45 O          27.0699   78.9804   -6.6795 O.3     1  UNL1       -0.3794
     46 H          27.3656   79.8129   -6.2863 H       1  UNL1        0.2105
@<TRIPOS>BOND
     1    29    30    1
     2    30    41    1
     3    30    31    1
     4    31    34    1
     5    31    32    1
     6    32    35    1
     7    32    33    1
     8    33    36    1
     9    33    44    1
    10    39    40    1
    11    39    42    2
    12    39    41   am
    13    41    43    1
    14    29    28    1
    15    34    37    1
    16    35    38    1
    17    29    36    1
    18    44    45    1
    19    45    46    1
    20    15     6    1
    21    15    16   ar
    22    16    21    2
    23    16    17   ar
    24    17    23    1
    25    17    18   ar
    26    18    19   ar
    27    19    20   ar
    28    15    20   ar
    29    18    22    2
    30     6     7    1
    31     6    11    1
    32     7     9    1
    33     7     8    1
    34     8    13    1
    35     9    10    1
    36     9    12    1
    37    10     5    1
    38    10    11    1
    39    12    14    1
    40     5     4    1
    41     4     1    1
    42     1     2    1
    43     1    24    1
    44     1     3    2
    45    24    25    1
    46    28    25    1
    47    25    26    1
    48    25    27    2
@<TRIPOS>MOLECULE
UD2
 46 48 0 0 0
SMALL
GASTEIGER

@<TRIPOS>ATOM
      1 P          23.4186   72.0308   -3.3748 P.3     1  UNL1        0.2189
      2 O          24.2105   72.7966   -4.5486 O.3     1  UNL1       -0.4371
      3 O          24.1728   70.8216   -2.9775 O.2     1  UNL1       -0.5170
      4 O          23.2648   73.0089   -2.1046 O.3     1  UNL1       -0.3112
      5 C          22.3344   72.7690   -1.0472 C.3     1  UNL1        0.1811
      6 C          24.4014   71.7694    1.7214 C.3     1  UNL1        0.2383
      7 C          23.0134   72.0480    2.3520 C.3     1  UNL1        0.1895
      8 O          22.7932   71.2125    3.4901 O.3     1  UNL1       -0.3779
      9 C          22.0509   71.6746    1.1981 C.3     1  UNL1        0.1713
     10 C          22.9285   71.7560   -0.0655 C.3     1  UNL1        0.1764
     11 O          24.2355   72.1850    0.3483 O.3     1  UNL1       -0.3308
     12 O          21.5503   70.3484    1.3754 O.3     1  UNL1       -0.3794
     13 H          21.9382   71.3501    3.9198 H       1  UNL1        0.2106
     14 H          21.0393   70.2253    2.1866 H       1  UNL1        0.2105
     15 N          25.4372   72.5676    2.3808 N.ar    1  UNL1       -0.2551
     16 C          26.5974   71.9890    2.7388 C.ar    1  UNL1        0.3323
     17 N          27.5668   72.6984    3.3465 N.ar    1  UNL1       -0.2743
     18 C          27.3876   74.0097    3.6052 C.ar    1  UNL1        0.2626
     19 C          26.1716   74.6318    3.2329 C.ar    1  UNL1        0.0795
     20 C          25.2187   73.8974    2.6212 C.ar    1  UNL1        0.0869
     21 O          26.7729   70.8075    2.5116 O.2     1  UNL1       -0.2464
     22 O          28.2643   74.6530    4.1547 O.2     1  UNL1       -0.2670
     23 H          28.3968   72.2654    3.5990 H       1  UNL1        0.1734
     24 O          21.9582   71.6037   -3.9022 O.3     1  UNL1       -0.2703
     25 P          20.8934   72.2722   -4.9083 P.3     1  UNL1        0.2208
     26 O          20.8421   73.8619   -4.6559 O.3     1  UNL1       -0.4371
     27 O          21.3014   72.0081   -6.3055 O.2     1  UNL1       -0.5170
     28 O          19.4363   71.6393   -4.6455 O.3     1  UNL1       -0.2865
     29 C          19.1250   70.2688   -4.9025 C.3     1  UNL1        0.2611
     30 C          18.1245   70.1798   -6.0574 C.3     1  UNL1        0.1582
     31 C          16.8258   70.8837   -5.6519 C.3     1  UNL1        0.1625
     32 C          16.2897   70.2429   -4.3687 C.3     1  UNL1        0.1686
     33 C          17.3612   70.3296   -3.2787 C.3     1  UNL1        0.1760
     34 O          15.8600   70.7419   -6.6961 O.3     1  UNL1       -0.3801
     35 O          15.9696   68.8728   -4.6167 O.3     1  UNL1       -0.3794
     36 O          18.5524   69.6831   -3.7314 O.3     1  UNL1       -0.3263
     37 H          15.0115   71.1654   -6.5067 H       1  UNL1        0.2105
     38 H          15.6240   68.4030   -3.8448 H       1  UNL1        0.2105
     39 C          18.5521   70.2599   -8.4550 C.2     1  UNL1        0.2231
     40 C          19.1288   70.9308   -9.6740 C.3     1  UNL1        0.0946
     41 N          18.6859   70.8329   -7.2426 N.am    1  UNL1       -0.2994
     42 O          17.9666   69.2028   -8.5641 O.2     1  UNL1       -0.2751
     43 H          19.1547   71.6776   -7.1548 H       1  UNL1        0.1496
     44 C          16.8557   69.6385   -2.0109 C.3     1  UNL1        0.1693
     45 O          17.2494   68.2647   -2.0272 O.3     1  UNL1       -0.3794
     46 H          16.9621   67.7635   -1.2518 H       1  UNL1        0.2105
@<TRIPOS>BOND
     1    29    30    1
     2    30    41    1
     3    30    31    1
     4    31    34    1
     5    31    32    1
     6    32    35    1
     7    32    33    1
     8    33    36    1
     9    33    44    1
    10    39    40    1
    11    39    42    2
    12    39    41   am
    13    41    43    1
    14    29    28    1
    15    34    37    1
    16    35    38    1
    17    29    36    1
    18    44    45    1
    19    45    46    1
    20    15     6    1
    21    15    16   ar
    22    16    21    2
    23    16    17   ar
    24    17    23    1
    25    17    18   ar
    26    18    19   ar
    27    19    20   ar
    28    15    20   ar
    29    18    22    2
    30     6     7    1
    31     6    11    1
    32     7     9    1
    33     7     8    1
    34     8    13    1
    35     9    10    1
    36     9    12    1
    37    10     5    1
    38    10    11    1
    39    12    14    1
    40     5     4    1
    41     4     1    1
    42     1     2    1
    43     1    24    1
    44     1     3    2
    45    24    25    1
    46    28    25    1
    47    25    26    1
    48    25    27    2
@<TRIPOS>MOLECULE
UD2
 46 48 0 0 0
SMALL
GASTEIGER

@<TRIPOS>ATOM
      1 P          22.9991   72.2083   -3.0545 P.3     1  UNL1        0.2189
      2 O          22.6270   73.7571   -2.8221 O.3     1  UNL1       -0.4371
      3 O          24.0820   72.1055   -4.0573 O.2     1  UNL1       -0.5170
      4 O          23.4912   71.5603   -1.6647 O.3     1  UNL1       -0.3112
      5 C          23.7828   72.3405   -0.5037 C.3     1  UNL1        0.1811
      6 C          22.8594   72.1311    2.9661 C.3     1  UNL1        0.2383
      7 C          21.5536   72.5423    2.2395 C.3     1  UNL1        0.1895
      8 O          20.4073   72.0291    2.9210 O.3     1  UNL1       -0.3779
      9 C          21.7235   71.8653    0.8574 C.3     1  UNL1        0.1713
     10 C          23.2411   71.6283    0.7382 C.3     1  UNL1        0.1764
     11 O          23.8530   72.1714    1.9189 O.3     1  UNL1       -0.3308
     12 O          21.0184   70.6234    0.8202 O.3     1  UNL1       -0.3794
     13 H          19.5659   72.2602    2.5049 H       1  UNL1        0.2106
     14 H          20.0642   70.7079    0.9496 H       1  UNL1        0.2105
     15 N          23.1850   73.0903    4.0239 N.ar    1  UNL1       -0.2551
     16 C          23.9709   74.1460    3.7474 C.ar    1  UNL1        0.3323
     17 N          24.2866   75.0432    4.7001 N.ar    1  UNL1       -0.2743
     18 C          23.8140   74.8958    5.9545 C.ar    1  UNL1        0.2626
     19 C          22.9848   73.7897    6.2594 C.ar    1  UNL1        0.0795
     20 C          22.6811   72.9081    5.2837 C.ar    1  UNL1        0.0869
     21 O          24.4040   74.2917    2.6206 O.2     1  UNL1       -0.2464
     22 O          24.0987   75.7073    6.8176 O.2     1  UNL1       -0.2670
     23 H          24.8555   75.7980    4.4839 H       1  UNL1        0.1734
     24 O          21.6999   71.4176   -3.5841 O.3     1  UNL1       -0.2703
     25 P          20.1656   71.3388   -3.1019 P.3     1  UNL1        0.2208
     26 O          20.0446   70.3157   -1.8640 O.3     1  UNL1       -0.4371
     27 O          19.7120   72.6814   -2.6775 O.2     1  UNL1       -0.5170
     28 O          19.2467   70.8210   -4.3185 O.3     1  UNL1       -0.2865
     29 C          18.4276   71.6919   -5.1007 C.3     1  UNL1        0.2611
     30 C          17.0341   71.0786   -5.2581 C.3     1  UNL1        0.1582
     31 C          17.1525   69.7502   -6.0116 C.3     1  UNL1        0.1625
     32 C          17.8327   69.9995   -7.3605 C.3     1  UNL1        0.1686
     33 C          19.1958   70.6545   -7.1219 C.3     1  UNL1        0.1760
     34 O          15.8484   69.2063   -6.2276 O.3     1  UNL1       -0.3801
     35 O          17.0184   70.8654   -8.1532 O.3     1  UNL1       -0.3794
     36 O          19.0174   71.8690   -6.3903 O.3     1  UNL1       -0.3263
     37 H          15.8480   68.3625   -6.7001 H       1  UNL1        0.2105
     38 H          17.3893   71.0675   -9.0236 H       1  UNL1        0.2105
     39 C          16.5875   69.6367   -3.3453 C.2     1  UNL1        0.2231
     40 C          15.9894   69.3915   -1.9848 C.3     1  UNL1        0.0946
     41 N          16.4519   70.8409   -3.9349 N.am    1  UNL1       -0.2994
     42 O          17.1919   68.7498   -3.9112 O.2     1  UNL1       -0.2751
     43 H          15.9679   71.5500   -3.4833 H       1  UNL1        0.1496
     44 C          19.8563   70.9615   -8.4673 C.3     1  UNL1        0.1693
     45 O          20.7079   72.1011   -8.3317 O.3     1  UNL1       -0.3794
     46 H          21.1607   72.3538   -9.1479 H       1  UNL1        0.2105
@<TRIPOS>BOND
     1    29    30    1
     2    30    41    1
     3    30    31    1
     4    31    34    1
     5    31    32    1
     6    32    35    1
     7    32    33    1
     8    33    36    1
     9    33    44    1
    10    39    40    1
    11    39    42    2
    12    39    41   am
    13    41    43    1
    14    29    28    1
    15    34    37    1
    16    35    38    1
    17    29    36    1
    18    44    45    1
    19    45    46    1
    20    15     6    1
    21    15    16   ar
    22    16    21    2
    23    16    17   ar
    24    17    23    1
    25    17    18   ar
    26    18    19   ar
    27    19    20   ar
    28    15    20   ar
    29    18    22    2
    30     6     7    1
    31     6    11    1
    32     7     9    1
    33     7     8    1
    34     8    13    1
    35     9    10    1
    36     9    12    1
    37    10     5    1
    38    10    11    1
    39    12    14    1
    40     5     4    1
    41     4     1    1
    42     1     2    1
    43     1    24    1
    44     1     3    2
    45    24    25    1
    46    28    25    1
    47    25    26    1
    48    25    27    2
@<TRIPOS>MOLECULE
UD2
 46 48 0 0 0
SMALL
GASTEIGER

@<TRIPOS>ATOM
      1 P          14.6876   71.8171   -1.3889 P.3     1  UNL1        0.2189
      2 O          13.4084   72.7557   -1.6609 O.3     1  UNL1       -0.4371
      3 O          15.7284   72.5937   -0.6801 O.2     1  UNL1       -0.5170
      4 O          14.2475   70.5591   -0.4847 O.3     1  UNL1       -0.3112
      5 C          13.6291   69.3908   -1.0270 C.3     1  UNL1        0.1811
      6 C          10.7768   67.3897   -0.1345 C.3     1  UNL1        0.2383
      7 C          11.9927   66.6033    0.4178 C.3     1  UNL1        0.1895
      8 O          11.6360   65.8709    1.5917 O.3     1  UNL1       -0.3779
      9 C          12.9883   67.7396    0.7569 C.3     1  UNL1        0.1713
     10 C          12.5061   68.9293   -0.0949 C.3     1  UNL1        0.1764
     11 O          11.3844   68.4747   -0.8687 O.3     1  UNL1       -0.3308
     12 O          12.9239   68.0608    2.1474 O.3     1  UNL1       -0.3794
     13 H          12.3635   65.3619    1.9743 H       1  UNL1        0.2106
     14 H          13.1605   67.3285    2.7324 H       1  UNL1        0.2105
     15 N           9.9787   66.5458   -1.0266 N.ar    1  UNL1       -0.2551
     16 C           8.6374   66.6441   -1.0137 C.ar    1  UNL1        0.3323
     17 N           7.8790   65.8808   -1.8226 N.ar    1  UNL1       -0.2743
     18 C           8.4580   65.0014   -2.6651 C.ar    1  UNL1        0.2626
     19 C           9.8689   64.8882   -2.6899 C.ar    1  UNL1        0.0795
     20 C          10.6048   65.6690   -1.8710 C.ar    1  UNL1        0.0869
     21 O           8.1017   67.4330   -0.2592 O.2     1  UNL1       -0.2464
     22 O           7.7727   64.3102   -3.3981 O.2     1  UNL1       -0.2670
     23 H           6.9132   65.9635   -1.7997 H       1  UNL1        0.1734
     24 O          15.2743   71.2890   -2.7926 O.3     1  UNL1       -0.2703
     25 P          16.4649   70.2841   -3.1994 P.3     1  UNL1        0.2208
     26 O          17.4498   70.0824   -1.9412 O.3     1  UNL1       -0.4371
     27 O          15.8948   68.9771   -3.5933 O.2     1  UNL1       -0.5170
     28 O          17.2915   70.9037   -4.4346 O.3     1  UNL1       -0.2865
     29 C          18.4375   70.2666   -5.0020 C.3     1  UNL1        0.2611
     30 C          19.6430   71.2052   -4.9085 C.3     1  UNL1        0.1582
     31 C          19.3601   72.4686   -5.7271 C.3     1  UNL1        0.1625
     32 C          19.0467   72.0685   -7.1715 C.3     1  UNL1        0.1686
     33 C          17.8639   71.0964   -7.1777 C.3     1  UNL1        0.1760
     34 O          20.5093   73.3184   -5.7056 O.3     1  UNL1       -0.3801
     35 O          20.1891   71.4352   -7.7503 O.3     1  UNL1       -0.3794
     36 O          18.1804   69.9584   -6.3736 O.3     1  UNL1       -0.3263
     37 H          20.4002   74.1395   -6.2048 H       1  UNL1        0.2105
     38 H          20.0613   71.1539   -8.6671 H       1  UNL1        0.2105
     39 C          20.8549   70.9717   -2.8074 C.2     1  UNL1        0.2231
     40 C          21.0906   71.3465   -1.3678 C.3     1  UNL1        0.0946
     41 N          19.8714   71.5701   -3.5081 N.am    1  UNL1       -0.2994
     42 O          21.5506   70.1305   -3.3372 O.2     1  UNL1       -0.2751
     43 H          19.3144   72.2420   -3.0846 H       1  UNL1        0.1496
     44 C          17.5824   70.6453   -8.6122 C.3     1  UNL1        0.1693
     45 O          18.0323   71.6488   -9.5249 O.3     1  UNL1       -0.3794
     46 H          17.8854   71.4296  -10.4551 H       1  UNL1        0.2105
@<TRIPOS>BOND
     1    29    30    1
     2    30    41    1
     3    30    31    1
     4    31    34    1
     5    31    32    1
     6    32    35    1
     7    32    33    1
     8    33    36    1
     9    33    44    1
    10    39    40    1
    11    39    42    2
    12    39    41   am
    13    41    43    1
    14    29    28    1
    15    34    37    1
    16    35    38    1
    17    29    36    1
    18    44    45    1
    19    45    46    1
    20    15     6    1
    21    15    16   ar
    22    16    21    2
    23    16    17   ar
    24    17    23    1
    25    17    18   ar
    26    18    19   ar
    27    19    20   ar
    28    15    20   ar
    29    18    22    2
    30     6     7    1
    31     6    11    1
    32     7     9    1
    33     7     8    1
    34     8    13    1
    35     9    10    1
    36     9    12    1
    37    10     5    1
    38    10    11    1
    39    12    14    1
    40     5     4    1
    41     4     1    1
    42     1     2    1
    43     1    24    1
    44     1     3    2
    45    24    25    1
    46    28    25    1
    47    25    26    1
    48    25    27    2
@<TRIPOS>MOLECULE
UD2
 46 48 0 0 0
SMALL
GASTEIGER

@<TRIPOS>ATOM
      1 P          23.4535   72.0566   -3.3408 P.3     1  UNL1        0.2189
      2 O          24.2775   73.0120   -4.3406 O.3     1  UNL1       -0.4371
      3 O          24.2074   70.8024   -3.1227 O.2     1  UNL1       -0.5170
      4 O          23.2429   72.8083   -1.9321 O.3     1  UNL1       -0.3112
      5 C          22.9656   74.2062   -1.8311 C.3     1  UNL1        0.1811
      6 C          21.0784   74.4444    1.2216 C.3     1  UNL1        0.2383
      7 C          21.4976   75.9031    0.9077 C.3     1  UNL1        0.1895
      8 O          20.5213   76.8291    1.3885 O.3     1  UNL1       -0.3779
      9 C          21.5433   75.9026   -0.6400 C.3     1  UNL1        0.1713
     10 C          21.6895   74.4147   -1.0118 C.3     1  UNL1        0.1764
     11 O          21.7700   73.6728    0.2156 O.3     1  UNL1       -0.3308
     12 O          20.3307   76.4356   -1.1751 O.3     1  UNL1       -0.3794
     13 H          20.7389   77.7552    1.2166 H       1  UNL1        0.2106
     14 H          20.1584   77.3528   -0.9231 H       1  UNL1        0.2105
     15 N          21.5207   74.0579    2.5632 N.ar    1  UNL1       -0.2551
     16 C          20.6220   73.9617    3.5592 C.ar    1  UNL1        0.3323
     17 N          21.0003   73.6087    4.8020 N.ar    1  UNL1       -0.2743
     18 C          22.2954   73.3429    5.0674 C.ar    1  UNL1        0.2626
     19 C          23.2520   73.4394    4.0283 C.ar    1  UNL1        0.0795
     20 C          22.8440   73.7912    2.7908 C.ar    1  UNL1        0.0869
     21 O          19.4507   74.1982    3.3342 O.2     1  UNL1       -0.2464
     22 O          22.6391   73.0230    6.1917 O.2     1  UNL1       -0.2670
     23 H          20.3395   73.5452    5.5088 H       1  UNL1        0.1734
     24 O          22.0180   71.7150   -3.9858 O.3     1  UNL1       -0.2703
     25 P          21.1088   72.4076   -5.1201 P.3     1  UNL1        0.2208
     26 O          21.0917   74.0021   -4.8939 O.3     1  UNL1       -0.4371
     27 O          21.6698   72.1053   -6.4551 O.2     1  UNL1       -0.5170
     28 O          19.6064   71.8359   -5.0267 O.3     1  UNL1       -0.2865
     29 C          19.2839   70.4585   -5.2269 C.3     1  UNL1        0.2611
     30 C          18.1992   70.3382   -6.3001 C.3     1  UNL1        0.1582
     31 C          16.9312   71.0470   -5.8139 C.3     1  UNL1        0.1625
     32 C          16.4973   70.4352   -4.4791 C.3     1  UNL1        0.1686
     33 C          17.6479   70.5519   -3.4758 C.3     1  UNL1        0.1760
     34 O          15.8899   70.8767   -6.7782 O.3     1  UNL1       -0.3801
     35 O          16.1668   69.0584   -4.6696 O.3     1  UNL1       -0.3794
     36 O          18.8049   69.8990   -4.0022 O.3     1  UNL1       -0.3263
     37 H          15.0559   71.3016   -6.5350 H       1  UNL1        0.2105
     38 H          15.8832   68.6060   -3.8628 H       1  UNL1        0.2105
     39 C          18.6883   70.2564   -8.6859 C.2     1  UNL1        0.2231
     40 C          19.1675   70.8999   -9.9606 C.3     1  UNL1        0.0946
     41 N          18.6657   70.9648   -7.5396 N.am    1  UNL1       -0.2994
     42 O          18.3224   69.0996   -8.6904 O.2     1  UNL1       -0.2751
     43 H          18.9591   71.8894   -7.5353 H       1  UNL1        0.1496
     44 C          17.2437   69.8895   -2.1573 C.3     1  UNL1        0.1693
     45 O          17.2880   68.4686   -2.3040 O.3     1  UNL1       -0.3794
     46 H          17.0429   67.9823   -1.5050 H       1  UNL1        0.2105
@<TRIPOS>BOND
     1    29    30    1
     2    30    41    1
     3    30    31    1
     4    31    34    1
     5    31    32    1
     6    32    35    1
     7    32    33    1
     8    33    36    1
     9    33    44    1
    10    39    40    1
    11    39    42    2
    12    39    41   am
    13    41    43    1
    14    29    28    1
    15    34    37    1
    16    35    38    1
    17    29    36    1
    18    44    45    1
    19    45    46    1
    20    15     6    1
    21    15    16   ar
    22    16    21    2
    23    16    17   ar
    24    17    23    1
    25    17    18   ar
    26    18    19   ar
    27    19    20   ar
    28    15    20   ar
    29    18    22    2
    30     6     7    1
    31     6    11    1
    32     7     9    1
    33     7     8    1
    34     8    13    1
    35     9    10    1
    36     9    12    1
    37    10     5    1
    38    10    11    1
    39    12    14    1
    40     5     4    1
    41     4     1    1
    42     1     2    1
    43     1    24    1
    44     1     3    2
    45    24    25    1
    46    28    25    1
    47    25    26    1
    48    25    27    2
@<TRIPOS>MOLECULE
UD2
 46 48 0 0 0
SMALL
GASTEIGER

@<TRIPOS>ATOM
      1 P          16.5077   69.5221   -2.8708 P.3     1  UNL1        0.2189
      2 O          17.4343   68.4018   -2.1797 O.3     1  UNL1       -0.4371
      3 O          16.1041   69.0662   -4.2192 O.2     1  UNL1       -0.5170
      4 O          15.1945   69.7625   -1.9701 O.3     1  UNL1       -0.3112
      5 C          14.9958   69.1338   -0.7025 C.3     1  UNL1        0.1811
      6 C          12.1364   67.9738    1.1455 C.3     1  UNL1        0.2383
      7 C          12.3705   69.4183    1.6560 C.3     1  UNL1        0.1895
      8 O          11.1378   70.0288    2.0424 O.3     1  UNL1       -0.3779
      9 C          12.9630   70.1132    0.4056 C.3     1  UNL1        0.1713
     10 C          13.4965   68.9511   -0.4537 C.3     1  UNL1        0.1764
     11 O          13.2671   67.7369    0.2789 O.3     1  UNL1       -0.3308
     12 O          11.9453   70.8288   -0.2966 O.3     1  UNL1       -0.3794
     13 H          11.2322   70.9337    2.3695 H       1  UNL1        0.2106
     14 H          11.5329   71.5350    0.2189 H       1  UNL1        0.2105
     15 N          12.1343   67.0261    2.2622 N.ar    1  UNL1       -0.2551
     16 C          13.3014   66.5769    2.7571 C.ar    1  UNL1        0.3323
     17 N          13.3293   65.7054    3.7828 N.ar    1  UNL1       -0.2743
     18 C          12.1786   65.2686    4.3338 C.ar    1  UNL1        0.2626
     19 C          10.9429   65.7341    3.8234 C.ar    1  UNL1        0.0795
     20 C          10.9447   66.6108    2.7973 C.ar    1  UNL1        0.0869
     21 O          14.3467   66.9623    2.2702 O.2     1  UNL1       -0.2464
     22 O          12.2025   64.4801    5.2624 O.2     1  UNL1       -0.2670
     23 H          14.1795   65.3906    4.1267 H       1  UNL1        0.1734
     24 O          17.3325   70.8997   -2.9942 O.3     1  UNL1       -0.2703
     25 P          17.3120   72.1252   -4.0387 P.3     1  UNL1        0.2208
     26 O          15.8583   72.2202   -4.7254 O.3     1  UNL1       -0.4371
     27 O          17.6029   73.3875   -3.3243 O.2     1  UNL1       -0.5170
     28 O          18.4274   71.8811   -5.1741 O.3     1  UNL1       -0.2865
     29 C          19.0239   70.6060   -5.4180 C.3     1  UNL1        0.2611
     30 C          20.5474   70.7511   -5.4449 C.3     1  UNL1        0.1582
     31 C          20.9430   71.6780   -6.5985 C.3     1  UNL1        0.1625
     32 C          20.3908   71.1093   -7.9085 C.3     1  UNL1        0.1686
     33 C          18.8730   70.9505   -7.7865 C.3     1  UNL1        0.1760
     34 O          22.3679   71.7609   -6.6769 O.3     1  UNL1       -0.3801
     35 O          20.9858   69.8359   -8.1648 O.3     1  UNL1       -0.3794
     36 O          18.5721   70.1022   -6.6766 O.3     1  UNL1       -0.3263
     37 H          22.6897   72.3334   -7.3868 H       1  UNL1        0.2105
     38 H          20.6806   69.4155   -8.9810 H       1  UNL1        0.2105
     39 C          21.1466   72.6582   -4.0515 C.2     1  UNL1        0.2231
     40 C          21.6187   73.2477   -2.7483 C.3     1  UNL1        0.0946
     41 N          21.0069   71.3237   -4.1771 N.am    1  UNL1       -0.2994
     42 O          20.8918   73.3848   -4.9892 O.2     1  UNL1       -0.2751
     43 H          21.2115   70.7423   -3.4280 H       1  UNL1        0.1496
     44 C          18.3209   70.3269   -9.0698 C.3     1  UNL1        0.1693
     45 O          18.8110   71.0501  -10.2008 O.3     1  UNL1       -0.3794
     46 H          18.5007   70.7094  -11.0509 H       1  UNL1        0.2105
@<TRIPOS>BOND
     1    29    30    1
     2    30    41    1
     3    30    31    1
     4    31    34    1
     5    31    32    1
     6    32    35    1
     7    32    33    1
     8    33    36    1
     9    33    44    1
    10    39    40    1
    11    39    42    2
    12    39    41   am
    13    41    43    1
    14    29    28    1
    15    34    37    1
    16    35    38    1
    17    29    36    1
    18    44    45    1
    19    45    46    1
    20    15     6    1
    21    15    16   ar
    22    16    21    2
    23    16    17   ar
    24    17    23    1
    25    17    18   ar
    26    18    19   ar
    27    19    20   ar
    28    15    20   ar
    29    18    22    2
    30     6     7    1
    31     6    11    1
    32     7     9    1
    33     7     8    1
    34     8    13    1
    35     9    10    1
    36     9    12    1
    37    10     5    1
    38    10    11    1
    39    12    14    1
    40     5     4    1
    41     4     1    1
    42     1     2    1
    43     1    24    1
    44     1     3    2
    45    24    25    1
    46    28    25    1
    47    25    26    1
    48    25    27    2
@<TRIPOS>MOLECULE
UD2
 46 48 0 0 0
SMALL
GASTEIGER

@<TRIPOS>ATOM
      1 P          22.3688   71.3952   -2.8865 P.3     1  UNL1        0.2189
      2 O          23.9245   71.3434   -3.2971 O.3     1  UNL1       -0.4371
      3 O          21.7074   70.1372   -3.2975 O.2     1  UNL1       -0.5170
      4 O          22.2407   71.5725   -1.2909 O.3     1  UNL1       -0.3112
      5 C          22.5173   72.8039   -0.6211 C.3     1  UNL1        0.1811
      6 C          24.2900   72.6870    2.5062 C.3     1  UNL1        0.2383
      7 C          23.9052   71.2130    2.2211 C.3     1  UNL1        0.1895
      8 O          24.8764   70.3177    2.7661 O.3     1  UNL1       -0.3779
      9 C          23.9186   71.1669    0.6734 C.3     1  UNL1        0.1713
     10 C          23.7642   72.6405    0.2515 C.3     1  UNL1        0.1764
     11 O          23.6257   73.4170    1.4521 O.3     1  UNL1       -0.3308
     12 O          25.1587   70.6381    0.2008 O.3     1  UNL1       -0.3794
     13 H          24.6795   69.3834    2.6141 H       1  UNL1        0.2106
     14 H          25.3351   69.7317    0.4866 H       1  UNL1        0.2105
     15 N          23.7911   73.1058    3.8180 N.ar    1  UNL1       -0.2551
     16 C          22.6431   72.5885    4.2906 C.ar    1  UNL1        0.3323
     17 N          22.1610   72.9554    5.4927 N.ar    1  UNL1       -0.2743
     18 C          22.8285   73.8524    6.2467 C.ar    1  UNL1        0.2626
     19 C          24.0388   74.4042    5.7620 C.ar    1  UNL1        0.0795
     20 C          24.5009   74.0151    4.5551 C.ar    1  UNL1        0.0869
     21 O          22.0308   71.7785    3.6217 O.2     1  UNL1       -0.2464
     22 O          22.3934   74.1850    7.3351 O.2     1  UNL1       -0.2670
     23 H          21.3312   72.5736    5.8179 H       1  UNL1        0.1734
     24 O          21.6603   72.6399   -3.6227 O.3     1  UNL1       -0.2703
     25 P          21.0793   72.8785   -5.1054 P.3     1  UNL1        0.2208
     26 O          21.2183   74.4358   -5.4915 O.3     1  UNL1       -0.4371
     27 O          21.8439   72.0609   -6.0726 O.2     1  UNL1       -0.5170
     28 O          19.5276   72.4508   -5.1489 O.3     1  UNL1       -0.2865
     29 C          19.0275   71.4217   -6.0046 C.3     1  UNL1        0.2611
     30 C          17.6157   71.7856   -6.4706 C.3     1  UNL1        0.1582
     31 C          16.6906   71.8680   -5.2525 C.3     1  UNL1        0.1625
     32 C          16.7288   70.5325   -4.5046 C.3     1  UNL1        0.1686
     33 C          18.1752   70.2169   -4.1142 C.3     1  UNL1        0.1760
     34 O          15.3546   72.1351   -5.6850 O.3     1  UNL1       -0.3801
     35 O          16.2250   69.4969   -5.3501 O.3     1  UNL1       -0.3794
     36 O          18.9879   70.1853   -5.2891 O.3     1  UNL1       -0.3263
     37 H          14.7140   72.2013   -4.9637 H       1  UNL1        0.2105
     38 H          16.2207   68.6207   -4.9401 H       1  UNL1        0.2105
     39 C          17.4360   74.2156   -6.4539 C.2     1  UNL1        0.2231
     40 C          17.4656   75.5489   -7.1539 C.3     1  UNL1        0.0946
     41 N          17.6444   73.0821   -7.1523 N.am    1  UNL1       -0.2994
     42 O          17.2243   74.1615   -5.2604 O.2     1  UNL1       -0.2751
     43 H          17.8127   73.1248   -8.1067 H       1  UNL1        0.1496
     44 C          18.2300   68.8553   -3.4188 C.3     1  UNL1        0.1693
     45 O          17.0664   68.6874   -2.6064 O.3     1  UNL1       -0.3794
     46 H          17.0339   67.8440   -2.1344 H       1  UNL1        0.2105
@<TRIPOS>BOND
     1    29    30    1
     2    30    41    1
     3    30    31    1
     4    31    34    1
     5    31    32    1
     6    32    35    1
     7    32    33    1
     8    33    36    1
     9    33    44    1
    10    39    40    1
    11    39    42    2
    12    39    41   am
    13    41    43    1
    14    29    28    1
    15    34    37    1
    16    35    38    1
    17    29    36    1
    18    44    45    1
    19    45    46    1
    20    15     6    1
    21    15    16   ar
    22    16    21    2
    23    16    17   ar
    24    17    23    1
    25    17    18   ar
    26    18    19   ar
    27    19    20   ar
    28    15    20   ar
    29    18    22    2
    30     6     7    1
    31     6    11    1
    32     7     9    1
    33     7     8    1
    34     8    13    1
    35     9    10    1
    36     9    12    1
    37    10     5    1
    38    10    11    1
    39    12    14    1
    40     5     4    1
    41     4     1    1
    42     1     2    1
    43     1    24    1
    44     1     3    2
    45    24    25    1
    46    28    25    1
    47    25    26    1
    48    25    27    2
@<TRIPOS>MOLECULE
UD2
 46 48 0 0 0
SMALL
GASTEIGER

@<TRIPOS>ATOM
      1 P          21.6734   73.0706   -6.5168 P.3     1  UNL1        0.2189
      2 O          23.0763   73.2116   -7.2937 O.3     1  UNL1       -0.4371
      3 O          20.7876   74.1957   -6.8888 O.2     1  UNL1       -0.5170
      4 O          20.9727   71.6787   -6.9232 O.3     1  UNL1       -0.3112
      5 C          20.5788   71.3684   -8.2611 C.3     1  UNL1        0.1811
      6 C          17.4719   70.0991   -6.9678 C.3     1  UNL1        0.2383
      7 C          17.0536   71.0919   -8.0820 C.3     1  UNL1        0.1895
      8 O          15.8286   70.6847   -8.6945 O.3     1  UNL1       -0.3779
      9 C          18.2336   70.9789   -9.0781 C.3     1  UNL1        0.1713
     10 C          19.3874   70.4078   -8.2319 C.3     1  UNL1        0.1764
     11 O          18.9036   70.2700   -6.8864 O.3     1  UNL1       -0.3308
     12 O          17.9038   70.0854  -10.1428 O.3     1  UNL1       -0.3794
     13 H          15.5251   71.2746   -9.3977 H       1  UNL1        0.2106
     14 H          17.1458   70.3665  -10.6728 H       1  UNL1        0.2105
     15 N          16.8366   70.4529   -5.6965 N.ar    1  UNL1       -0.2551
     16 C          16.4606   69.4811   -4.8462 C.ar    1  UNL1        0.3323
     17 N          15.8744   69.7773   -3.6711 N.ar    1  UNL1       -0.2743
     18 C          15.6559   71.0626   -3.3265 C.ar    1  UNL1        0.2626
     19 C          16.0476   72.0957   -4.2116 C.ar    1  UNL1        0.0795
     20 C          16.6371   71.7700   -5.3812 C.ar    1  UNL1        0.0869
     21 O          16.6515   68.3177   -5.1438 O.2     1  UNL1       -0.2464
     22 O          15.1258   71.3320   -2.2631 O.2     1  UNL1       -0.2670
     23 H          15.6083   69.0643   -3.0703 H       1  UNL1        0.1734
     24 O          21.9346   73.0954   -4.9279 O.3     1  UNL1       -0.2703
     25 P          22.7183   74.0961   -3.9394 P.3     1  UNL1        0.2208
     26 O          24.1368   74.4919   -4.5912 O.3     1  UNL1       -0.4371
     27 O          21.9120   75.3192   -3.7343 O.2     1  UNL1       -0.5170
     28 O          22.9620   73.3696   -2.5232 O.3     1  UNL1       -0.2865
     29 C          22.0728   73.5089   -1.4136 C.3     1  UNL1        0.2611
     30 C          22.7382   72.9531   -0.1523 C.3     1  UNL1        0.1582
     31 C          23.0102   71.4581   -0.3455 C.3     1  UNL1        0.1625
     32 C          21.6926   70.7478   -0.6677 C.3     1  UNL1        0.1686
     33 C          21.0674   71.3888   -1.9096 C.3     1  UNL1        0.1760
     34 O          23.5645   70.9149    0.8549 O.3     1  UNL1       -0.3801
     35 O          20.7978   70.8763    0.4386 O.3     1  UNL1       -0.3794
     36 O          20.8690   72.7843   -1.6747 O.3     1  UNL1       -0.3263
     37 H          23.7627   69.9697    0.8036 H       1  UNL1        0.2105
     38 H          19.9402   70.4492    0.3033 H       1  UNL1        0.2105
     39 C          24.1552   74.4177    1.1836 C.2     1  UNL1        0.2231
     40 C          25.4550   75.1388    1.4268 C.3     1  UNL1        0.0946
     41 N          24.0027   73.6544    0.0834 N.am    1  UNL1       -0.2994
     42 O          23.2446   74.5236    1.9784 O.2     1  UNL1       -0.2751
     43 H          24.7301   73.5702   -0.5527 H       1  UNL1        0.1496
     44 C          19.7212   70.7242   -2.2033 C.3     1  UNL1        0.1693
     45 O          18.6657   71.5313   -1.6770 O.3     1  UNL1       -0.3794
     46 H          17.7814   71.1700   -1.8269 H       1  UNL1        0.2105
@<TRIPOS>BOND
     1    29    30    1
     2    30    41    1
     3    30    31    1
     4    31    34    1
     5    31    32    1
     6    32    35    1
     7    32    33    1
     8    33    36    1
     9    33    44    1
    10    39    40    1
    11    39    42    2
    12    39    41   am
    13    41    43    1
    14    29    28    1
    15    34    37    1
    16    35    38    1
    17    29    36    1
    18    44    45    1
    19    45    46    1
    20    15     6    1
    21    15    16   ar
    22    16    21    2
    23    16    17   ar
    24    17    23    1
    25    17    18   ar
    26    18    19   ar
    27    19    20   ar
    28    15    20   ar
    29    18    22    2
    30     6     7    1
    31     6    11    1
    32     7     9    1
    33     7     8    1
    34     8    13    1
    35     9    10    1
    36     9    12    1
    37    10     5    1
    38    10    11    1
    39    12    14    1
    40     5     4    1
    41     4     1    1
    42     1     2    1
    43     1    24    1
    44     1     3    2
    45    24    25    1
    46    28    25    1
    47    25    26    1
    48    25    27    2
@<TRIPOS>MOLECULE
UD2
 46 48 0 0 0
SMALL
GASTEIGER

@<TRIPOS>ATOM
      1 P          20.8520   71.4970   -1.0465 P.3     1  UNL1        0.2189
      2 O          20.8375   70.6350    0.3129 O.3     1  UNL1       -0.4371
      3 O          21.9632   71.0396   -1.9096 O.2     1  UNL1       -0.5170
      4 O          19.4541   71.3001   -1.8217 O.3     1  UNL1       -0.3112
      5 C          19.1732   70.1637   -2.6410 C.3     1  UNL1        0.1811
      6 C          17.3129   70.4163   -5.7089 C.3     1  UNL1        0.2383
      7 C          17.0669   68.9654   -5.2223 C.3     1  UNL1        0.1895
      8 O          15.7780   68.5024   -5.6297 O.3     1  UNL1       -0.3779
      9 C          17.1366   69.1223   -3.6835 C.3     1  UNL1        0.1713
     10 C          17.9175   70.4336   -3.4736 C.3     1  UNL1        0.1764
     11 O          18.2880   70.9235   -4.7721 O.3     1  UNL1       -0.3308
     12 O          15.8227   69.2284   -3.1329 O.3     1  UNL1       -0.3794
     13 H          15.5776   67.5991   -5.3494 H       1  UNL1        0.2106
     14 H          15.2667   68.4529   -3.2875 H       1  UNL1        0.2105
     15 N          17.8541   70.4191   -7.0698 N.ar    1  UNL1       -0.2551
     16 C          17.0151   70.4451   -8.1206 C.ar    1  UNL1        0.3323
     17 N          17.4847   70.4481   -9.3822 N.ar    1  UNL1       -0.2743
     18 C          18.8134   70.4268   -9.6119 C.ar    1  UNL1        0.2626
     19 C          19.7081   70.4004   -8.5151 C.ar    1  UNL1        0.0795
     20 C          19.2096   70.4023   -7.2609 C.ar    1  UNL1        0.0869
     21 O          15.8147   70.4646   -7.9284 O.2     1  UNL1       -0.2464
     22 O          19.2397   70.4300  -10.7533 O.2     1  UNL1       -0.2670
     23 H          16.8659   70.4657  -10.1284 H       1  UNL1        0.1734
     24 O          21.0535   73.0550   -0.6922 O.3     1  UNL1       -0.2703
     25 P          22.1882   73.8852    0.0927 P.3     1  UNL1        0.2208
     26 O          23.6219   73.1917   -0.1463 O.3     1  UNL1       -0.4371
     27 O          22.2224   75.2747   -0.4138 O.2     1  UNL1       -0.5170
     28 O          21.8525   73.8957    1.6675 O.3     1  UNL1       -0.2865
     29 C          22.4753   74.7912    2.5902 C.3     1  UNL1        0.2611
     30 C          23.0929   73.9922    3.7404 C.3     1  UNL1        0.1582
     31 C          21.9816   73.2507    4.4899 C.3     1  UNL1        0.1625
     32 C          20.9452   74.2660    4.9793 C.3     1  UNL1        0.1686
     33 C          20.4103   75.0546    3.7810 C.3     1  UNL1        0.1760
     34 O          22.5401   72.5605    5.6102 O.3     1  UNL1       -0.3801
     35 O          21.5570   75.1634    5.9076 O.3     1  UNL1       -0.3794
     36 O          21.4977   75.6947    3.1102 O.3     1  UNL1       -0.3263
     37 H          21.8914   72.0675    6.1311 H       1  UNL1        0.2105
     38 H          20.9570   75.8361    6.2590 H       1  UNL1        0.2105
     39 C          23.6551   71.7670    2.9219 C.2     1  UNL1        0.2231
     40 C          24.6406   70.7707    2.3698 C.3     1  UNL1        0.0946
     41 N          24.0521   73.0236    3.2036 N.am    1  UNL1       -0.2994
     42 O          22.5029   71.4385    3.1133 O.2     1  UNL1       -0.2751
     43 H          24.9735   73.2864    3.0517 H       1  UNL1        0.1496
     44 C          19.4180   76.1120    4.2685 C.3     1  UNL1        0.1693
     45 O          20.1333   77.2168    4.8253 O.3     1  UNL1       -0.3794
     46 H          19.5662   77.9270    5.1555 H       1  UNL1        0.2105
@<TRIPOS>BOND
     1    29    30    1
     2    30    41    1
     3    30    31    1
     4    31    34    1
     5    31    32    1
     6    32    35    1
     7    32    33    1
     8    33    36    1
     9    33    44    1
    10    39    40    1
    11    39    42    2
    12    39    41   am
    13    41    43    1
    14    29    28    1
    15    34    37    1
    16    35    38    1
    17    29    36    1
    18    44    45    1
    19    45    46    1
    20    15     6    1
    21    15    16   ar
    22    16    21    2
    23    16    17   ar
    24    17    23    1
    25    17    18   ar
    26    18    19   ar
    27    19    20   ar
    28    15    20   ar
    29    18    22    2
    30     6     7    1
    31     6    11    1
    32     7     9    1
    33     7     8    1
    34     8    13    1
    35     9    10    1
    36     9    12    1
    37    10     5    1
    38    10    11    1
    39    12    14    1
    40     5     4    1
    41     4     1    1
    42     1     2    1
    43     1    24    1
    44     1     3    2
    45    24    25    1
    46    28    25    1
    47    25    26    1
    48    25    27    2
@<TRIPOS>MOLECULE
UD2
 46 48 0 0 0
SMALL
GASTEIGER

@<TRIPOS>ATOM
      1 P          21.6867   73.0651   -6.5251 P.3     1  UNL1        0.2189
      2 O          23.1023   73.2821   -7.2602 O.3     1  UNL1       -0.4371
      3 O          20.7636   74.1594   -6.8981 O.2     1  UNL1       -0.5170
      4 O          21.0574   71.6538   -6.9788 O.3     1  UNL1       -0.3112
      5 C          20.6234   71.3898   -8.3142 C.3     1  UNL1        0.1811
      6 C          17.5214   70.1103   -7.0192 C.3     1  UNL1        0.2383
      7 C          17.0994   71.0977   -8.1368 C.3     1  UNL1        0.1895
      8 O          15.8767   70.6830   -8.7489 O.3     1  UNL1       -0.3779
      9 C          18.2806   70.9870   -9.1317 C.3     1  UNL1        0.1713
     10 C          19.4364   70.4239   -8.2829 C.3     1  UNL1        0.1764
     11 O          18.9523   70.2880   -6.9373 O.3     1  UNL1       -0.3308
     12 O          17.9557   70.0886  -10.1938 O.3     1  UNL1       -0.3794
     13 H          15.5710   71.2692   -9.4542 H       1  UNL1        0.2106
     14 H          17.1968   70.3646  -10.7252 H       1  UNL1        0.2105
     15 N          16.8835   70.4652   -5.7494 N.ar    1  UNL1       -0.2551
     16 C          16.5064   69.4941   -4.8988 C.ar    1  UNL1        0.3323
     17 N          15.9178   69.7913   -3.7252 N.ar    1  UNL1       -0.2743
     18 C          15.6981   71.0769   -3.3824 C.ar    1  UNL1        0.2626
     19 C          16.0910   72.1092   -4.2678 C.ar    1  UNL1        0.0795
     20 C          16.6828   71.7826   -5.4359 C.ar    1  UNL1        0.0869
     21 O          16.6984   68.3305   -5.1948 O.2     1  UNL1       -0.2464
     22 O          15.1659   71.3472   -2.3202 O.2     1  UNL1       -0.2670
     23 H          15.6510   69.0788   -3.1240 H       1  UNL1        0.1734
     24 O          21.9045   73.0666   -4.9295 O.3     1  UNL1       -0.2703
     25 P          23.0434   73.6587   -3.9573 P.3     1  UNL1        0.2208
     26 O          24.4516   72.9503   -4.2874 O.3     1  UNL1       -0.4371
     27 O          23.1641   75.1177   -4.1697 O.2     1  UNL1       -0.5170
     28 O          22.6435   73.3704   -2.4244 O.3     1  UNL1       -0.2865
     29 C          23.4450   72.5776   -1.5467 C.3     1  UNL1        0.2611
     30 C          22.6215   71.3952   -1.0305 C.3     1  UNL1        0.1582
     31 C          21.4329   71.9258   -0.2230 C.3     1  UNL1        0.1625
     32 C          21.9552   72.8095    0.9132 C.3     1  UNL1        0.1686
     33 C          22.8045   73.9377    0.3218 C.3     1  UNL1        0.1760
     34 O          20.6997   70.8277    0.3245 O.3     1  UNL1       -0.3801
     35 O          22.7538   72.0244    1.8004 O.3     1  UNL1       -0.3794
     36 O          23.8739   73.3765   -0.4421 O.3     1  UNL1       -0.3263
     37 H          19.9308   71.0910    0.8487 H       1  UNL1        0.2105
     38 H          23.1192   72.5214    2.5457 H       1  UNL1        0.2105
     39 C          20.9015   70.8420   -2.6655 C.2     1  UNL1        0.2231
     40 C          20.3962   70.0338   -3.8318 C.3     1  UNL1        0.0946
     41 N          22.1307   70.6085   -2.1648 N.am    1  UNL1       -0.2994
     42 O          20.2017   71.7039   -2.1761 O.2     1  UNL1       -0.2751
     43 H          22.6901   69.9188   -2.5552 H       1  UNL1        0.1496
     44 C          23.3793   74.7904    1.4545 C.3     1  UNL1        0.1693
     45 O          22.9917   74.2356    2.7132 O.3     1  UNL1       -0.3794
     46 H          23.3216   74.7263    3.4783 H       1  UNL1        0.2105
@<TRIPOS>BOND
     1    29    30    1
     2    30    41    1
     3    30    31    1
     4    31    34    1
     5    31    32    1
     6    32    35    1
     7    32    33    1
     8    33    36    1
     9    33    44    1
    10    39    40    1
    11    39    42    2
    12    39    41   am
    13    41    43    1
    14    29    28    1
    15    34    37    1
    16    35    38    1
    17    29    36    1
    18    44    45    1
    19    45    46    1
    20    15     6    1
    21    15    16   ar
    22    16    21    2
    23    16    17   ar
    24    17    23    1
    25    17    18   ar
    26    18    19   ar
    27    19    20   ar
    28    15    20   ar
    29    18    22    2
    30     6     7    1
    31     6    11    1
    32     7     9    1
    33     7     8    1
    34     8    13    1
    35     9    10    1
    36     9    12    1
    37    10     5    1
    38    10    11    1
    39    12    14    1
    40     5     4    1
    41     4     1    1
    42     1     2    1
    43     1    24    1
    44     1     3    2
    45    24    25    1
    46    28    25    1
    47    25    26    1
    48    25    27    2
@<TRIPOS>MOLECULE
UD2
 46 48 0 0 0
SMALL
GASTEIGER

@<TRIPOS>ATOM
      1 P          19.4598   73.1637   -1.8388 P.3     1  UNL1        0.2189
      2 O          19.9520   74.3791   -2.7726 O.3     1  UNL1       -0.4371
      3 O          18.1350   73.4868   -1.2651 O.2     1  UNL1       -0.5170
      4 O          19.3498   71.8204   -2.7204 O.3     1  UNL1       -0.3112
      5 C          18.4719   70.7430   -2.3889 C.3     1  UNL1        0.1811
      6 C          16.9184   70.5139   -5.6248 C.3     1  UNL1        0.2383
      7 C          16.8819   69.0666   -5.0717 C.3     1  UNL1        0.1895
      8 O          15.7423   68.3603   -5.5657 O.3     1  UNL1       -0.3779
      9 C          16.7659   69.3042   -3.5461 C.3     1  UNL1        0.1713
     10 C          17.2797   70.7432   -3.3490 C.3     1  UNL1        0.1764
     11 O          17.6891   71.2314   -4.6364 O.3     1  UNL1       -0.3308
     12 O          15.4046   69.1969   -3.1266 O.3     1  UNL1       -0.3794
     13 H          15.6756   67.4496   -5.2482 H       1  UNL1        0.2106
     14 H          15.0117   68.3274   -3.2821 H       1  UNL1        0.2105
     15 N          17.5866   70.5516   -6.9276 N.ar    1  UNL1       -0.2551
     16 C          16.8547   70.4862   -8.0540 C.ar    1  UNL1        0.3323
     17 N          17.4422   70.5185   -9.2648 N.ar    1  UNL1       -0.2743
     18 C          18.7831   70.6195   -9.3660 C.ar    1  UNL1        0.2626
     19 C          19.5658   70.6902   -8.1885 C.ar    1  UNL1        0.0795
     20 C          18.9499   70.6599   -6.9879 C.ar    1  UNL1        0.0869
     21 O          15.6446   70.3952   -7.9778 O.2     1  UNL1       -0.2464
     22 O          19.3161   70.6492  -10.4613 O.2     1  UNL1       -0.2670
     23 H          16.8997   70.4691  -10.0669 H       1  UNL1        0.1734
     24 O          20.5202   72.9379   -0.6480 O.3     1  UNL1       -0.2703
     25 P          21.3117   73.9267    0.3464 P.3     1  UNL1        0.2208
     26 O          20.5486   75.3433    0.4134 O.3     1  UNL1       -0.4371
     27 O          21.3621   73.3298    1.6990 O.2     1  UNL1       -0.5170
     28 O          22.8103   74.1492   -0.1988 O.3     1  UNL1       -0.2865
     29 C          23.8175   73.1374   -0.1423 C.3     1  UNL1        0.2611
     30 C          23.1607   71.7572   -0.2224 C.3     1  UNL1        0.1582
     31 C          22.2422   71.5673    0.9887 C.3     1  UNL1        0.1625
     32 C          23.0609   71.7471    2.2700 C.3     1  UNL1        0.1686
     33 C          23.7217   73.1280    2.2540 C.3     1  UNL1        0.1760
     34 O          21.6812   70.2529    0.9608 O.3     1  UNL1       -0.3801
     35 O          24.0680   70.7359    2.3391 O.3     1  UNL1       -0.3794
     36 O          24.5373   73.2506    1.0871 O.3     1  UNL1       -0.3263
     37 H          21.0871   70.0634    1.7000 H       1  UNL1        0.2105
     38 H          24.6266   70.7894    3.1272 H       1  UNL1        0.2105
     39 C          22.9591   71.2585   -2.5990 C.2     1  UNL1        0.2231
     40 C          22.1502   71.1589   -3.8656 C.3     1  UNL1        0.0946
     41 N          22.3732   71.6608   -1.4540 N.am    1  UNL1       -0.2994
     42 O          24.1392   70.9764   -2.6089 O.2     1  UNL1       -0.2751
     43 H          21.4300   71.8873   -1.4458 H       1  UNL1        0.1496
     44 C          24.5898   73.2923    3.5030 C.3     1  UNL1        0.1693
     45 O          25.9383   72.9306    3.1976 O.3     1  UNL1       -0.3794
     46 H          26.5464   73.0106    3.9452 H       1  UNL1        0.2105
@<TRIPOS>BOND
     1    29    30    1
     2    30    41    1
     3    30    31    1
     4    31    34    1
     5    31    32    1
     6    32    35    1
     7    32    33    1
     8    33    36    1
     9    33    44    1
    10    39    40    1
    11    39    42    2
    12    39    41   am
    13    41    43    1
    14    29    28    1
    15    34    37    1
    16    35    38    1
    17    29    36    1
    18    44    45    1
    19    45    46    1
    20    15     6    1
    21    15    16   ar
    22    16    21    2
    23    16    17   ar
    24    17    23    1
    25    17    18   ar
    26    18    19   ar
    27    19    20   ar
    28    15    20   ar
    29    18    22    2
    30     6     7    1
    31     6    11    1
    32     7     9    1
    33     7     8    1
    34     8    13    1
    35     9    10    1
    36     9    12    1
    37    10     5    1
    38    10    11    1
    39    12    14    1
    40     5     4    1
    41     4     1    1
    42     1     2    1
    43     1    24    1
    44     1     3    2
    45    24    25    1
    46    28    25    1
    47    25    26    1
    48    25    27    2
@<TRIPOS>MOLECULE
UD2
 46 48 0 0 0
SMALL
GASTEIGER

@<TRIPOS>ATOM
      1 P          22.1851   73.4601   -4.7586 P.3     1  UNL1        0.2189
      2 O          22.2085   74.5919   -5.9031 O.3     1  UNL1       -0.4371
      3 O          23.3822   72.6007   -4.8892 O.2     1  UNL1       -0.5170
      4 O          22.1842   74.1626   -3.3093 O.3     1  UNL1       -0.3112
      5 C          21.3776   73.7027   -2.2233 C.3     1  UNL1        0.1811
      6 C          23.2952   71.6488    0.0219 C.3     1  UNL1        0.2383
      7 C          21.8669   71.6554    0.6235 C.3     1  UNL1        0.1895
      8 O          21.5956   70.4303    1.3070 O.3     1  UNL1       -0.3779
      9 C          20.9823   71.7906   -0.6400 C.3     1  UNL1        0.1713
     10 C          21.9318   72.3738   -1.7038 C.3     1  UNL1        0.1764
     11 O          23.2033   72.5886   -1.0708 O.3     1  UNL1       -0.3308
     12 O          20.4979   70.5105   -1.0492 O.3     1  UNL1       -0.3794
     13 H          20.7140   70.3864    1.7014 H       1  UNL1        0.2106
     14 H          19.9420   70.0709   -0.3919 H       1  UNL1        0.2105
     15 N          24.2742   72.1024    1.0122 N.ar    1  UNL1       -0.2551
     16 C          24.9427   71.1989    1.7508 C.ar    1  UNL1        0.3323
     17 N          25.8479   71.5874    2.6683 N.ar    1  UNL1       -0.2743
     18 C          26.1004   72.8982    2.8600 C.ar    1  UNL1        0.2626
     19 C          25.4047   73.8601    2.0887 C.ar    1  UNL1        0.0795
     20 C          24.5057   73.4421    1.1730 C.ar    1  UNL1        0.0869
     21 O          24.7253   70.0136    1.5885 O.2     1  UNL1       -0.2464
     22 O          26.9197   73.2511    3.6898 O.2     1  UNL1       -0.2670
     23 H          26.3201   70.9228    3.1932 H       1  UNL1        0.1734
     24 O          20.8586   72.5612   -4.9193 O.3     1  UNL1       -0.2703
     25 P          20.5933   70.9852   -5.1156 P.3     1  UNL1        0.2208
     26 O          21.3809   70.4674   -6.4215 O.3     1  UNL1       -0.4371
     27 O          21.0765   70.2513   -3.9256 O.2     1  UNL1       -0.5170
     28 O          19.0151   70.7259   -5.3023 O.3     1  UNL1       -0.2865
     29 C          18.1642   71.6035   -6.0419 C.3     1  UNL1        0.2611
     30 C          16.7290   71.0726   -6.0083 C.3     1  UNL1        0.1582
     31 C          16.6854   69.7004   -6.6877 C.3     1  UNL1        0.1625
     32 C          17.2221   69.8324   -8.1156 C.3     1  UNL1        0.1686
     33 C          18.6387   70.4112   -8.0680 C.3     1  UNL1        0.1760
     34 O          15.3362   69.2297   -6.7263 O.3     1  UNL1       -0.3801
     35 O          16.3744   70.7041   -8.8659 O.3     1  UNL1       -0.3794
     36 O          18.6138   71.6724   -7.3967 O.3     1  UNL1       -0.3263
     37 H          15.2341   68.3633   -7.1435 H       1  UNL1        0.2105
     38 H          16.6557   70.8346   -9.7823 H       1  UNL1        0.2105
     39 C          16.4117   69.7656   -3.9763 C.2     1  UNL1        0.2231
     40 C          15.9579   69.6332   -2.5463 C.3     1  UNL1        0.0946
     41 N          16.2872   70.9445   -4.6173 N.am    1  UNL1       -0.2994
     42 O          16.8897   68.8106   -4.5522 O.2     1  UNL1       -0.2751
     43 H          15.9041   71.7081   -4.1576 H       1  UNL1        0.1496
     44 C          19.1596   70.6021   -9.4937 C.3     1  UNL1        0.1693
     45 O          18.3687   71.5865  -10.1628 O.3     1  UNL1       -0.3794
     46 H          18.6427   71.7592  -11.0739 H       1  UNL1        0.2105
@<TRIPOS>BOND
     1    29    30    1
     2    30    41    1
     3    30    31    1
     4    31    34    1
     5    31    32    1
     6    32    35    1
     7    32    33    1
     8    33    36    1
     9    33    44    1
    10    39    40    1
    11    39    42    2
    12    39    41   am
    13    41    43    1
    14    29    28    1
    15    34    37    1
    16    35    38    1
    17    29    36    1
    18    44    45    1
    19    45    46    1
    20    15     6    1
    21    15    16   ar
    22    16    21    2
    23    16    17   ar
    24    17    23    1
    25    17    18   ar
    26    18    19   ar
    27    19    20   ar
    28    15    20   ar
    29    18    22    2
    30     6     7    1
    31     6    11    1
    32     7     9    1
    33     7     8    1
    34     8    13    1
    35     9    10    1
    36     9    12    1
    37    10     5    1
    38    10    11    1
    39    12    14    1
    40     5     4    1
    41     4     1    1
    42     1     2    1
    43     1    24    1
    44     1     3    2
    45    24    25    1
    46    28    25    1
    47    25    26    1
    48    25    27    2
@<TRIPOS>MOLECULE
UD2
 46 48 0 0 0
SMALL
GASTEIGER

@<TRIPOS>ATOM
      1 P          23.0539   71.6405   -2.2494 P.3     1  UNL1        0.2189
      2 O          24.1877   70.8774   -3.1000 O.3     1  UNL1       -0.4371
      3 O          23.3865   73.0795   -2.1623 O.2     1  UNL1       -0.5170
      4 O          21.6275   71.4623   -2.9756 O.3     1  UNL1       -0.3112
      5 C          20.7389   70.3810   -2.6882 C.3     1  UNL1        0.1811
      6 C          18.1905   70.7293   -5.2024 C.3     1  UNL1        0.2383
      7 C          17.9814   69.3041   -4.6304 C.3     1  UNL1        0.1895
      8 O          16.6045   68.9269   -4.6914 O.3     1  UNL1       -0.3779
      9 C          18.4437   69.4718   -3.1622 C.3     1  UNL1        0.1713
     10 C          19.3348   70.7282   -3.1892 C.3     1  UNL1        0.1764
     11 O          19.3994   71.1777   -4.5520 O.3     1  UNL1       -0.3308
     12 O          17.3188   69.6741   -2.3051 O.3     1  UNL1       -0.3794
     13 H          16.4230   68.0426   -4.3455 H       1  UNL1        0.2106
     14 H          16.6933   68.9373   -2.2952 H       1  UNL1        0.2105
     15 N          18.3732   70.6806   -6.6547 N.ar    1  UNL1       -0.2551
     16 C          19.6059   70.5145   -7.1661 C.ar    1  UNL1        0.3323
     17 N          19.8032   70.4662   -8.4969 N.ar    1  UNL1       -0.2743
     18 C          18.7592   70.5828   -9.3424 C.ar    1  UNL1        0.2626
     19 C          17.4559   70.7570   -8.8178 C.ar    1  UNL1        0.0795
     20 C          17.2868   70.7975   -7.4794 C.ar    1  UNL1        0.0869
     21 O          20.5566   70.4078   -6.4155 O.2     1  UNL1       -0.2464
     22 O          18.9363   70.5388  -10.5471 O.2     1  UNL1       -0.2670
     23 H          20.6988   70.3471   -8.8489 H       1  UNL1        0.1734
     24 O          22.9826   71.0151   -0.7672 O.3     1  UNL1       -0.2703
     25 P          22.1711   71.3981    0.5699 P.3     1  UNL1        0.2208
     26 O          20.7824   72.1086    0.1692 O.3     1  UNL1       -0.4371
     27 O          21.8905   70.1703    1.3458 O.2     1  UNL1       -0.5170
     28 O          23.0529   72.4076    1.4621 O.3     1  UNL1       -0.2865
     29 C          22.5741   73.6804    1.9002 C.3     1  UNL1        0.2611
     30 C          23.6998   74.7125    1.7993 C.3     1  UNL1        0.1582
     31 C          24.8438   74.3001    2.7309 C.3     1  UNL1        0.1625
     32 C          24.3036   74.1679    4.1575 C.3     1  UNL1        0.1686
     33 C          23.1543   73.1565    4.1674 C.3     1  UNL1        0.1760
     34 O          25.8682   75.2965    2.6986 O.3     1  UNL1       -0.3801
     35 O          23.8272   75.4375    4.6075 O.3     1  UNL1       -0.3794
     36 O          22.1383   73.5835    3.2578 O.3     1  UNL1       -0.3263
     37 H          26.6259   75.0994    3.2663 H       1  UNL1        0.2105
     38 H          23.4689   75.4279    5.5061 H       1  UNL1        0.2105
     39 C          24.4778   75.9595   -0.1442 C.2     1  UNL1        0.2231
     40 C          24.9807   76.0196   -1.5627 C.3     1  UNL1        0.0946
     41 N          24.1887   74.7700    0.4194 N.am    1  UNL1       -0.2994
     42 O          24.3327   76.9825    0.4920 O.2     1  UNL1       -0.2751
     43 H          24.3036   73.9520   -0.0891 H       1  UNL1        0.1496
     44 C          22.5697   73.0630    5.5781 C.3     1  UNL1        0.1693
     45 O          21.3201   73.7549    5.6236 O.3     1  UNL1       -0.3794
     46 H          20.8913   73.7370    6.4901 H       1  UNL1        0.2105
@<TRIPOS>BOND
     1    29    30    1
     2    30    41    1
     3    30    31    1
     4    31    34    1
     5    31    32    1
     6    32    35    1
     7    32    33    1
     8    33    36    1
     9    33    44    1
    10    39    40    1
    11    39    42    2
    12    39    41   am
    13    41    43    1
    14    29    28    1
    15    34    37    1
    16    35    38    1
    17    29    36    1
    18    44    45    1
    19    45    46    1
    20    15     6    1
    21    15    16   ar
    22    16    21    2
    23    16    17   ar
    24    17    23    1
    25    17    18   ar
    26    18    19   ar
    27    19    20   ar
    28    15    20   ar
    29    18    22    2
    30     6     7    1
    31     6    11    1
    32     7     9    1
    33     7     8    1
    34     8    13    1
    35     9    10    1
    36     9    12    1
    37    10     5    1
    38    10    11    1
    39    12    14    1
    40     5     4    1
    41     4     1    1
    42     1     2    1
    43     1    24    1
    44     1     3    2
    45    24    25    1
    46    28    25    1
    47    25    26    1
    48    25    27    2
@<TRIPOS>MOLECULE
UD2
 46 48 0 0 0
SMALL
GASTEIGER

@<TRIPOS>ATOM
      1 P          20.6967   71.1678   -1.0921 P.3     1  UNL1        0.2189
      2 O          19.3590   70.3939   -1.5430 O.3     1  UNL1       -0.4371
      3 O          20.4557   72.6273   -1.1185 O.2     1  UNL1       -0.5170
      4 O          21.0998   70.7172    0.4006 O.3     1  UNL1       -0.3112
      5 C          22.4520   70.6704    0.8597 C.3     1  UNL1        0.1811
      6 C          24.5256   72.8901    2.7858 C.3     1  UNL1        0.2383
      7 C          24.3072   73.6294    1.4412 C.3     1  UNL1        0.1895
      8 O          24.3183   75.0457    1.6302 O.3     1  UNL1       -0.3779
      9 C          22.8988   73.1387    1.0253 C.3     1  UNL1        0.1713
     10 C          22.7042   71.8342    1.8215 C.3     1  UNL1        0.1764
     11 O          23.9119   71.6018    2.5638 O.3     1  UNL1       -0.3308
     12 O          21.9075   74.1004    1.3901 O.3     1  UNL1       -0.3794
     13 H          24.1861   75.5523    0.8175 H       1  UNL1        0.2106
     14 H          22.0168   74.9606    0.9627 H       1  UNL1        0.2105
     15 N          25.9554   72.7396    3.0653 N.ar    1  UNL1       -0.2551
     16 C          26.5997   73.6859    3.7710 C.ar    1  UNL1        0.3323
     17 N          27.9135   73.5736    4.0425 N.ar    1  UNL1       -0.2743
     18 C          28.6069   72.5014    3.6088 C.ar    1  UNL1        0.2626
     19 C          27.9411   71.4971    2.8657 C.ar    1  UNL1        0.0795
     20 C          26.6226   71.6335    2.6118 C.ar    1  UNL1        0.0869
     21 O          25.9871   74.6580    4.1685 O.2     1  UNL1       -0.2464
     22 O          29.7959   72.3983    3.8542 O.2     1  UNL1       -0.2670
     23 H          28.3629   74.2657    4.5516 H       1  UNL1        0.1734
     24 O          21.8951   70.8030   -2.1041 O.3     1  UNL1       -0.2703
     25 P          22.9611   71.6775   -2.9358 P.3     1  UNL1        0.2208
     26 O          23.3160   73.0153   -2.1123 O.3     1  UNL1       -0.4371
     27 O          24.1933   70.8860   -3.1443 O.2     1  UNL1       -0.5170
     28 O          22.3311   72.0765   -4.3628 O.3     1  UNL1       -0.2865
     29 C          21.3294   73.0836   -4.5174 C.3     1  UNL1        0.2611
     30 C          20.2842   72.6135   -5.5319 C.3     1  UNL1        0.1582
     31 C          20.9590   72.4160   -6.8928 C.3     1  UNL1        0.1625
     32 C          21.6282   73.7272   -7.3140 C.3     1  UNL1        0.1686
     33 C          22.6219   74.1543   -6.2304 C.3     1  UNL1        0.1760
     34 O          19.9765   72.0479   -7.8636 O.3     1  UNL1       -0.3801
     35 O          20.6338   74.7401   -7.4769 O.3     1  UNL1       -0.3794
     36 O          21.9360   74.2904   -4.9843 O.3     1  UNL1       -0.3263
     37 H          20.3346   71.9056   -8.7506 H       1  UNL1        0.2105
     38 H          20.9876   75.6002   -7.7433 H       1  UNL1        0.2105
     39 C          18.3768   71.1358   -5.1918 C.2     1  UNL1        0.2231
     40 C          17.7793   69.8318   -4.7322 C.3     1  UNL1        0.0946
     41 N          19.7038   71.3450   -5.0844 N.am    1  UNL1       -0.2994
     42 O          17.6634   71.9988   -5.6591 O.2     1  UNL1       -0.2751
     43 H          20.2744   70.6556   -4.7100 H       1  UNL1        0.1496
     44 C          23.2512   75.4945   -6.6156 C.3     1  UNL1        0.1693
     45 O          24.3688   75.7587   -5.7651 O.3     1  UNL1       -0.3794
     46 H          24.8176   76.5944   -5.9527 H       1  UNL1        0.2105
@<TRIPOS>BOND
     1    29    30    1
     2    30    41    1
     3    30    31    1
     4    31    34    1
     5    31    32    1
     6    32    35    1
     7    32    33    1
     8    33    36    1
     9    33    44    1
    10    39    40    1
    11    39    42    2
    12    39    41   am
    13    41    43    1
    14    29    28    1
    15    34    37    1
    16    35    38    1
    17    29    36    1
    18    44    45    1
    19    45    46    1
    20    15     6    1
    21    15    16   ar
    22    16    21    2
    23    16    17   ar
    24    17    23    1
    25    17    18   ar
    26    18    19   ar
    27    19    20   ar
    28    15    20   ar
    29    18    22    2
    30     6     7    1
    31     6    11    1
    32     7     9    1
    33     7     8    1
    34     8    13    1
    35     9    10    1
    36     9    12    1
    37    10     5    1
    38    10    11    1
    39    12    14    1
    40     5     4    1
    41     4     1    1
    42     1     2    1
    43     1    24    1
    44     1     3    2
    45    24    25    1
    46    28    25    1
    47    25    26    1
    48    25    27    2
@<TRIPOS>MOLECULE
UD2
 46 48 0 0 0
SMALL
GASTEIGER

@<TRIPOS>ATOM
      1 P          22.6769   72.6115   -3.9689 P.3     1  UNL1        0.2189
      2 O          22.1391   74.1249   -3.8601 O.3     1  UNL1       -0.4371
      3 O          23.7590   72.5430   -4.9755 O.2     1  UNL1       -0.5170
      4 O          23.2446   72.1397   -2.5375 O.3     1  UNL1       -0.3112
      5 C          22.6475   72.5271   -1.2986 C.3     1  UNL1        0.1811
      6 C          24.3859   71.6122    1.7143 C.3     1  UNL1        0.2383
      7 C          22.9692   72.0219    2.1909 C.3     1  UNL1        0.1895
      8 O          22.5918   71.2889    3.3579 O.3     1  UNL1       -0.3779
      9 C          22.0906   71.6231    0.9799 C.3     1  UNL1        0.1713
     10 C          23.0812   71.5557   -0.1981 C.3     1  UNL1        0.1764
     11 O          24.3721   71.9334    0.3063 O.3     1  UNL1       -0.3308
     12 O          21.4872   70.3471    1.2002 O.3     1  UNL1       -0.3794
     13 H          21.7131   71.5104    3.6948 H       1  UNL1        0.2106
     14 H          20.8984   70.3165    1.9663 H       1  UNL1        0.2105
     15 N          25.4105   72.3924    2.4118 N.ar    1  UNL1       -0.2551
     16 C          26.6121   71.8422    2.6615 C.ar    1  UNL1        0.3323
     17 N          27.5723   72.5359    3.3009 N.ar    1  UNL1       -0.2743
     18 C          27.3418   73.8027    3.7016 C.ar    1  UNL1        0.2626
     19 C          26.0818   74.3947    3.4444 C.ar    1  UNL1        0.0795
     20 C          25.1391   73.6775    2.7977 C.ar    1  UNL1        0.0869
     21 O          26.8340   70.7009    2.3057 O.2     1  UNL1       -0.2464
     22 O          28.2102   74.4318    4.2800 O.2     1  UNL1       -0.2670
     23 H          28.4327   72.1236    3.4740 H       1  UNL1        0.1734
     24 O          21.4690   71.6430   -4.4121 O.3     1  UNL1       -0.2703
     25 P          19.9479   71.4553   -3.9183 P.3     1  UNL1        0.2208
     26 O          19.9120   70.4460   -2.6639 O.3     1  UNL1       -0.4371
     27 O          19.3956   72.7661   -3.5119 O.2     1  UNL1       -0.5170
     28 O          19.0644   70.8496   -5.1205 O.3     1  UNL1       -0.2865
     29 C          18.1352   71.6309   -5.8738 C.3     1  UNL1        0.2611
     30 C          16.7528   70.9763   -5.8170 C.3     1  UNL1        0.1582
     31 C          16.8269   69.5899   -6.4641 C.3     1  UNL1        0.1625
     32 C          17.3420   69.7347   -7.8987 C.3     1  UNL1        0.1686
     33 C          18.7021   70.4373   -7.8752 C.3     1  UNL1        0.1760
     34 O          15.5244   69.0012   -6.4815 O.3     1  UNL1       -0.3801
     35 O          16.4165   70.5101   -8.6625 O.3     1  UNL1       -0.3794
     36 O          18.5695   71.7070   -7.2332 O.3     1  UNL1       -0.3263
     37 H          15.4970   68.1194   -6.8777 H       1  UNL1        0.2105
     38 H          16.6801   70.6432   -9.5838 H       1  UNL1        0.2105
     39 C          16.5612   69.6943   -3.7537 C.2     1  UNL1        0.2231
     40 C          16.1288   69.5564   -2.3175 C.3     1  UNL1        0.0946
     41 N          16.3316   70.8428   -4.4201 N.am    1  UNL1       -0.2994
     42 O          17.1168   68.7710   -4.3114 O.2     1  UNL1       -0.2751
     43 H          15.8866   71.5809   -3.9749 H       1  UNL1        0.1496
     44 C          19.1963   70.6394   -9.3088 C.3     1  UNL1        0.1693
     45 O          18.3491   71.5759   -9.9779 O.3     1  UNL1       -0.3794
     46 H          18.6036   71.7528  -10.8938 H       1  UNL1        0.2105
@<TRIPOS>BOND
     1    29    30    1
     2    30    41    1
     3    30    31    1
     4    31    34    1
     5    31    32    1
     6    32    35    1
     7    32    33    1
     8    33    36    1
     9    33    44    1
    10    39    40    1
    11    39    42    2
    12    39    41   am
    13    41    43    1
    14    29    28    1
    15    34    37    1
    16    35    38    1
    17    29    36    1
    18    44    45    1
    19    45    46    1
    20    15     6    1
    21    15    16   ar
    22    16    21    2
    23    16    17   ar
    24    17    23    1
    25    17    18   ar
    26    18    19   ar
    27    19    20   ar
    28    15    20   ar
    29    18    22    2
    30     6     7    1
    31     6    11    1
    32     7     9    1
    33     7     8    1
    34     8    13    1
    35     9    10    1
    36     9    12    1
    37    10     5    1
    38    10    11    1
    39    12    14    1
    40     5     4    1
    41     4     1    1
    42     1     2    1
    43     1    24    1
    44     1     3    2
    45    24    25    1
    46    28    25    1
    47    25    26    1
    48    25    27    2
