@<TRIPOS>MOLECULE
UD2
 46 48 0 0 0
SMALL
GASTEIGER

@<TRIPOS>ATOM
      1 P          22.0932   71.1292   -2.9019 P.3     1  UNL1        0.2189
      2 O          21.6240   69.5911   -2.9757 O.3     1  UNL1       -0.4371
      3 O          23.3544   71.2976   -3.6569 O.2     1  UNL1       -0.5170
      4 O          20.9538   72.0691   -3.5438 O.3     1  UNL1       -0.3112
      5 C          19.9007   72.6505   -2.7729 C.3     1  UNL1        0.1811
      6 C          17.7920   71.4206   -5.4143 C.3     1  UNL1        0.2383
      7 C          17.9930   70.2027   -4.4770 C.3     1  UNL1        0.1895
      8 O          16.8499   69.3456   -4.5021 O.3     1  UNL1       -0.3779
      9 C          18.1458   70.8793   -3.0928 C.3     1  UNL1        0.1713
     10 C          18.5538   72.3274   -3.4245 C.3     1  UNL1        0.1764
     11 O          18.6665   72.4236   -4.8533 O.3     1  UNL1       -0.3308
     12 O          16.9037   70.8583   -2.3874 O.3     1  UNL1       -0.3794
     13 H          16.9279   68.5688   -3.9319 H       1  UNL1        0.2106
     14 H          16.5696   69.9699   -2.2040 H       1  UNL1        0.2105
     15 N          18.1959   71.0905   -6.7828 N.ar    1  UNL1       -0.2551
     16 C          17.2712   70.6847   -7.6711 C.ar    1  UNL1        0.3323
     17 N          17.6141   70.3746   -8.9354 N.ar    1  UNL1       -0.2743
     18 C          18.8994   70.4690   -9.3327 C.ar    1  UNL1        0.2626
     19 C          19.8830   70.8959   -8.4083 C.ar    1  UNL1        0.0795
     20 C          19.5103   71.2043   -7.1484 C.ar    1  UNL1        0.0869
     21 O          16.1085   70.5951   -7.3269 O.2     1  UNL1       -0.2464
     22 O          19.2110   70.1891  -10.4768 O.2     1  UNL1       -0.2670
     23 H          16.9350   70.0825   -9.5628 H       1  UNL1        0.1734
     24 O          22.3281   71.5458   -1.3642 O.3     1  UNL1       -0.2703
     25 P          22.4689   70.7174    0.0094 P.3     1  UNL1        0.2208
     26 O          21.1855   69.7619    0.1931 O.3     1  UNL1       -0.4371
     27 O          23.6955   69.8917   -0.0356 O.2     1  UNL1       -0.5170
     28 O          22.5567   71.7428    1.2478 O.3     1  UNL1       -0.2865
     29 C          21.6595   72.8423    1.4132 C.3     1  UNL1        0.2611
     30 C          22.3778   74.1462    1.0571 C.3     1  UNL1        0.1582
     31 C          23.5498   74.3531    2.0215 C.3     1  UNL1        0.1625
     32 C          23.0205   74.3556    3.4582 C.3     1  UNL1        0.1686
     33 C          22.2774   73.0433    3.7217 C.3     1  UNL1        0.1760
     34 O          24.1816   75.6048    1.7431 O.3     1  UNL1       -0.3801
     35 O          22.1262   75.4555    3.6358 O.3     1  UNL1       -0.3794
     36 O          21.2198   72.8976    2.7718 O.3     1  UNL1       -0.3263
     37 H          24.9347   75.8010    2.3171 H       1  UNL1        0.2105
     38 H          21.7511   75.5187    4.5254 H       1  UNL1        0.2105
     39 C          22.7499   75.1234   -1.1438 C.2     1  UNL1        0.2231
     40 C          23.2679   75.0439   -2.5559 C.3     1  UNL1        0.0946
     41 N          22.8817   74.0679   -0.3163 N.am    1  UNL1       -0.2994
     42 O          22.2134   76.1381   -0.7506 O.2     1  UNL1       -0.2751
     43 H          23.3097   73.2561   -0.6306 H       1  UNL1        0.1496
     44 C          21.6940   73.0629    5.1359 C.3     1  UNL1        0.1693
     45 O          22.7452   73.2651    6.0828 O.3     1  UNL1       -0.3794
     46 H          22.4476   73.2885    7.0025 H       1  UNL1        0.2105
@<TRIPOS>BOND
     1    29    30    1
     2    30    41    1
     3    30    31    1
     4    31    34    1
     5    31    32    1
     6    32    35    1
     7    32    33    1
     8    33    36    1
     9    33    44    1
    10    39    40    1
    11    39    42    2
    12    39    41   am
    13    41    43    1
    14    29    28    1
    15    34    37    1
    16    35    38    1
    17    29    36    1
    18    44    45    1
    19    45    46    1
    20    15     6    1
    21    15    16   ar
    22    16    21    2
    23    16    17   ar
    24    17    23    1
    25    17    18   ar
    26    18    19   ar
    27    19    20   ar
    28    15    20   ar
    29    18    22    2
    30     6     7    1
    31     6    11    1
    32     7     9    1
    33     7     8    1
    34     8    13    1
    35     9    10    1
    36     9    12    1
    37    10     5    1
    38    10    11    1
    39    12    14    1
    40     5     4    1
    41     4     1    1
    42     1     2    1
    43     1    24    1
    44     1     3    2
    45    24    25    1
    46    28    25    1
    47    25    26    1
    48    25    27    2
@<TRIPOS>MOLECULE
UD2
 46 48 0 0 0
SMALL
GASTEIGER

@<TRIPOS>ATOM
      1 P          22.8884   71.9948   -3.3431 P.3     1  UNL1        0.2189
      2 O          23.5042   70.5103   -3.2511 O.3     1  UNL1       -0.4371
      3 O          23.5613   72.7423   -4.4281 O.2     1  UNL1       -0.5170
      4 O          21.3106   71.9028   -3.6531 O.3     1  UNL1       -0.3112
      5 C          20.3099   72.0738   -2.6478 C.3     1  UNL1        0.1811
      6 C          18.0153   71.3207   -5.3132 C.3     1  UNL1        0.2383
      7 C          18.0518   70.0310   -4.4543 C.3     1  UNL1        0.1895
      8 O          16.7979   69.3478   -4.5065 O.3     1  UNL1       -0.3779
      9 C          18.3164   70.5923   -3.0358 C.3     1  UNL1        0.1713
     10 C          18.9229   71.9857   -3.2892 C.3     1  UNL1        0.1764
     11 O          19.0307   72.1530   -4.7118 O.3     1  UNL1       -0.3308
     12 O          17.0926   70.7040   -2.3072 O.3     1  UNL1       -0.3794
     13 H          16.7711   68.5340   -3.9853 H       1  UNL1        0.2106
     14 H          16.6375   69.8623   -2.1700 H       1  UNL1        0.2105
     15 N          18.3514   71.0219   -6.7070 N.ar    1  UNL1       -0.2551
     16 C          17.3682   70.7830   -7.5931 C.ar    1  UNL1        0.3323
     17 N          17.6480   70.5056   -8.8803 N.ar    1  UNL1       -0.2743
     18 C          18.9279   70.4649   -9.3031 C.ar    1  UNL1        0.2626
     19 C          19.9728   70.7153   -8.3814 C.ar    1  UNL1        0.0795
     20 C          19.6631   70.9950   -7.0979 C.ar    1  UNL1        0.0869
     21 O          16.2096   70.8167   -7.2260 O.2     1  UNL1       -0.2464
     22 O          19.1825   70.2143  -10.4680 O.2     1  UNL1       -0.2670
     23 H          16.9271   70.3347   -9.5058 H       1  UNL1        0.1734
     24 O          23.1160   72.7582   -1.9436 O.3     1  UNL1       -0.2703
     25 P          23.1392   74.3078   -1.5065 P.3     1  UNL1        0.2208
     26 O          24.6378   74.8815   -1.6448 O.3     1  UNL1       -0.4371
     27 O          22.2327   75.0816   -2.3827 O.2     1  UNL1       -0.5170
     28 O          22.6520   74.4414    0.0224 O.3     1  UNL1       -0.2865
     29 C          21.3920   73.9507    0.4836 C.3     1  UNL1        0.2611
     30 C          21.1138   74.4950    1.8868 C.3     1  UNL1        0.1582
     31 C          22.1920   73.9828    2.8467 C.3     1  UNL1        0.1625
     32 C          22.2073   72.4522    2.8104 C.3     1  UNL1        0.1686
     33 C          22.4434   71.9865    1.3712 C.3     1  UNL1        0.1760
     34 O          21.8992   74.4262    4.1737 O.3     1  UNL1       -0.3801
     35 O          20.9528   71.9509    3.2755 O.3     1  UNL1       -0.3794
     36 O          21.4239   72.5225    0.5255 O.3     1  UNL1       -0.3263
     37 H          22.5430   74.1382    4.8353 H       1  UNL1        0.2105
     38 H          20.8912   70.9854    3.2788 H       1  UNL1        0.2105
     39 C          19.9957   76.6572    1.9993 C.2     1  UNL1        0.2231
     40 C          20.0218   78.1628    1.9696 C.3     1  UNL1        0.0946
     41 N          21.1400   75.9596    1.8575 N.am    1  UNL1       -0.2994
     42 O          18.9440   76.0714    2.1510 O.2     1  UNL1       -0.2751
     43 H          21.9809   76.4275    1.7352 H       1  UNL1        0.1496
     44 C          22.4006   70.4582    1.3165 C.3     1  UNL1        0.1693
     45 O          21.4851   70.0427    0.3007 O.3     1  UNL1       -0.3794
     46 H          21.4069   69.0832    0.2096 H       1  UNL1        0.2105
@<TRIPOS>BOND
     1    29    30    1
     2    30    41    1
     3    30    31    1
     4    31    34    1
     5    31    32    1
     6    32    35    1
     7    32    33    1
     8    33    36    1
     9    33    44    1
    10    39    40    1
    11    39    42    2
    12    39    41   am
    13    41    43    1
    14    29    28    1
    15    34    37    1
    16    35    38    1
    17    29    36    1
    18    44    45    1
    19    45    46    1
    20    15     6    1
    21    15    16   ar
    22    16    21    2
    23    16    17   ar
    24    17    23    1
    25    17    18   ar
    26    18    19   ar
    27    19    20   ar
    28    15    20   ar
    29    18    22    2
    30     6     7    1
    31     6    11    1
    32     7     9    1
    33     7     8    1
    34     8    13    1
    35     9    10    1
    36     9    12    1
    37    10     5    1
    38    10    11    1
    39    12    14    1
    40     5     4    1
    41     4     1    1
    42     1     2    1
    43     1    24    1
    44     1     3    2
    45    24    25    1
    46    28    25    1
    47    25    26    1
    48    25    27    2
@<TRIPOS>MOLECULE
UD2
 46 48 0 0 0
SMALL
GASTEIGER

@<TRIPOS>ATOM
      1 P          21.9194   70.9339   -0.2902 P.3     1  UNL1        0.2189
      2 O          21.6026   69.5885    0.5349 O.3     1  UNL1       -0.4371
      3 O          23.1197   70.7273   -1.1301 O.2     1  UNL1       -0.5170
      4 O          20.6624   71.2953   -1.2300 O.3     1  UNL1       -0.3112
      5 C          20.7275   71.2735   -2.6572 C.3     1  UNL1        0.1811
      6 C          18.2394   71.1570   -5.2519 C.3     1  UNL1        0.2383
      7 C          18.0647   69.8220   -4.4841 C.3     1  UNL1        0.1895
      8 O          16.7041   69.3869   -4.5207 O.3     1  UNL1       -0.3779
      9 C          18.4797   70.2173   -3.0457 C.3     1  UNL1        0.1713
     10 C          19.3266   71.4903   -3.2346 C.3     1  UNL1        0.1764
     11 O          19.4132   71.7410   -4.6464 O.3     1  UNL1       -0.3308
     12 O          17.3251   70.4972   -2.2525 O.3     1  UNL1       -0.3794
     13 H          16.5442   68.5553   -4.0544 H       1  UNL1        0.2106
     14 H          16.7257   69.7457   -2.1500 H       1  UNL1        0.2105
     15 N          18.4640   70.9067   -6.6773 N.ar    1  UNL1       -0.2551
     16 C          17.4120   70.7857   -7.5065 C.ar    1  UNL1        0.3323
     17 N          17.5889   70.5553   -8.8210 N.ar    1  UNL1       -0.2743
     18 C          18.8331   70.4435   -9.3291 C.ar    1  UNL1        0.2626
     19 C          19.9495   70.5698   -8.4678 C.ar    1  UNL1        0.0795
     20 C          19.7429   70.8048   -7.1550 C.ar    1  UNL1        0.0869
     21 O          16.2845   70.8844   -7.0623 O.2     1  UNL1       -0.2464
     22 O          18.9946   70.2354  -10.5187 O.2     1  UNL1       -0.2670
     23 H          16.8194   70.4695   -9.4047 H       1  UNL1        0.1734
     24 O          22.1853   72.1444    0.7380 O.3     1  UNL1       -0.2703
     25 P          22.3835   73.7332    0.5671 P.3     1  UNL1        0.2208
     26 O          23.8309   74.0269   -0.0753 O.3     1  UNL1       -0.4371
     27 O          21.3312   74.2689   -0.3239 O.2     1  UNL1       -0.5170
     28 O          22.2809   74.4448    2.0078 O.3     1  UNL1       -0.2865
     29 C          22.7579   73.8394    3.2108 C.3     1  UNL1        0.2611
     30 C          22.0200   74.4370    4.4113 C.3     1  UNL1        0.1582
     31 C          22.3247   75.9359    4.4925 C.3     1  UNL1        0.1625
     32 C          23.8402   76.1335    4.5856 C.3     1  UNL1        0.1686
     33 C          24.5081   75.4704    3.3780 C.3     1  UNL1        0.1760
     34 O          21.6989   76.4880    5.6530 O.3     1  UNL1       -0.3801
     35 O          24.3267   75.5363    5.7889 O.3     1  UNL1       -0.3794
     36 O          24.1594   74.0851    3.3440 O.3     1  UNL1       -0.3263
     37 H          21.8498   77.4363    5.7672 H       1  UNL1        0.2105
     38 H          25.2822   75.6230    5.9134 H       1  UNL1        0.2105
     39 C          19.8037   73.9973    5.3238 C.2     1  UNL1        0.2231
     40 C          18.3208   73.7936    5.1560 C.3     1  UNL1        0.0946
     41 N          20.5777   74.2387    4.2473 N.am    1  UNL1       -0.2994
     42 O          20.3024   73.9440    6.4286 O.2     1  UNL1       -0.2751
     43 H          20.1796   74.2804    3.3637 H       1  UNL1        0.1496
     44 C          26.0270   75.6117    3.4943 C.3     1  UNL1        0.1693
     45 O          26.3431   76.8442    4.1449 O.3     1  UNL1       -0.3794
     46 H          27.2912   77.0007    4.2529 H       1  UNL1        0.2105
@<TRIPOS>BOND
     1    29    30    1
     2    30    41    1
     3    30    31    1
     4    31    34    1
     5    31    32    1
     6    32    35    1
     7    32    33    1
     8    33    36    1
     9    33    44    1
    10    39    40    1
    11    39    42    2
    12    39    41   am
    13    41    43    1
    14    29    28    1
    15    34    37    1
    16    35    38    1
    17    29    36    1
    18    44    45    1
    19    45    46    1
    20    15     6    1
    21    15    16   ar
    22    16    21    2
    23    16    17   ar
    24    17    23    1
    25    17    18   ar
    26    18    19   ar
    27    19    20   ar
    28    15    20   ar
    29    18    22    2
    30     6     7    1
    31     6    11    1
    32     7     9    1
    33     7     8    1
    34     8    13    1
    35     9    10    1
    36     9    12    1
    37    10     5    1
    38    10    11    1
    39    12    14    1
    40     5     4    1
    41     4     1    1
    42     1     2    1
    43     1    24    1
    44     1     3    2
    45    24    25    1
    46    28    25    1
    47    25    26    1
    48    25    27    2
@<TRIPOS>MOLECULE
UD2
 46 48 0 0 0
SMALL
GASTEIGER

@<TRIPOS>ATOM
      1 P          22.0532   70.6821   -0.3380 P.3     1  UNL1        0.2189
      2 O          21.6493   69.3727    0.5068 O.3     1  UNL1       -0.4371
      3 O          23.1598   70.3514   -1.2626 O.2     1  UNL1       -0.5170
      4 O          20.7799   71.1884   -1.1841 O.3     1  UNL1       -0.3112
      5 C          20.8230   71.4116   -2.5947 C.3     1  UNL1        0.1811
      6 C          18.3008   71.0941   -5.1392 C.3     1  UNL1        0.2383
      7 C          18.2683   69.7394   -4.3871 C.3     1  UNL1        0.1895
      8 O          16.9539   69.1792   -4.4019 O.3     1  UNL1       -0.3779
      9 C          18.6758   70.1542   -2.9520 C.3     1  UNL1        0.1713
     10 C          19.3958   71.5032   -3.1402 C.3     1  UNL1        0.1764
     11 O          19.4279   71.7781   -4.5497 O.3     1  UNL1       -0.3308
     12 O          17.5176   70.3150   -2.1314 O.3     1  UNL1       -0.3794
     13 H          16.8825   68.3306   -3.9443 H       1  UNL1        0.2106
     14 H          16.9934   69.5095   -2.0272 H       1  UNL1        0.2105
     15 N          18.5168   70.8834   -6.5724 N.ar    1  UNL1       -0.2551
     16 C          17.4619   70.6891   -7.3838 C.ar    1  UNL1        0.3323
     17 N          17.6309   70.4927   -8.7048 N.ar    1  UNL1       -0.2743
     18 C          18.8697   70.4898   -9.2375 C.ar    1  UNL1        0.2626
     19 C          19.9891   70.6941   -8.3953 C.ar    1  UNL1        0.0795
     20 C          19.7900   70.8927   -7.0753 C.ar    1  UNL1        0.0869
     21 O          16.3391   70.6894   -6.9172 O.2     1  UNL1       -0.2464
     22 O          19.0240   70.3126  -10.4331 O.2     1  UNL1       -0.2670
     23 H          16.8595   70.3530   -9.2754 H       1  UNL1        0.1734
     24 O          22.5248   71.8466    0.6693 O.3     1  UNL1       -0.2703
     25 P          21.7755   72.7250    1.7918 P.3     1  UNL1        0.2208
     26 O          20.8430   73.8263    1.0768 O.3     1  UNL1       -0.4371
     27 O          20.9383   71.8414    2.6324 O.2     1  UNL1       -0.5170
     28 O          22.8696   73.4643    2.7133 O.3     1  UNL1       -0.2865
     29 C          22.7759   74.8421    3.0794 C.3     1  UNL1        0.2611
     30 C          24.1688   75.3758    3.4225 C.3     1  UNL1        0.1582
     31 C          24.7161   74.6098    4.6308 C.3     1  UNL1        0.1625
     32 C          23.7361   74.7520    5.7986 C.3     1  UNL1        0.1686
     33 C          22.3596   74.2422    5.3637 C.3     1  UNL1        0.1760
     34 O          25.9854   75.1511    5.0039 O.3     1  UNL1       -0.3801
     35 O          23.6395   76.1265    6.1764 O.3     1  UNL1       -0.3794
     36 O          21.9221   74.9752    4.2177 O.3     1  UNL1       -0.3263
     37 H          26.3918   74.7120    5.7637 H       1  UNL1        0.2105
     38 H          23.0334   76.2912    6.9123 H       1  UNL1        0.2105
     39 C          25.6274   76.2524    1.6785 C.2     1  UNL1        0.2231
     40 C          26.5456   76.0577    0.5006 C.3     1  UNL1        0.0946
     41 N          25.0616   75.1855    2.2766 N.am    1  UNL1       -0.2994
     42 O          25.3965   77.3704    2.0895 O.2     1  UNL1       -0.2751
     43 H          25.2452   74.2916    1.9477 H       1  UNL1        0.1496
     44 C          21.3601   74.4361    6.5056 C.3     1  UNL1        0.1693
     45 O          20.0662   74.7122    5.9653 O.3     1  UNL1       -0.3794
     46 H          19.3806   74.8467    6.6339 H       1  UNL1        0.2105
@<TRIPOS>BOND
     1    29    30    1
     2    30    41    1
     3    30    31    1
     4    31    34    1
     5    31    32    1
     6    32    35    1
     7    32    33    1
     8    33    36    1
     9    33    44    1
    10    39    40    1
    11    39    42    2
    12    39    41   am
    13    41    43    1
    14    29    28    1
    15    34    37    1
    16    35    38    1
    17    29    36    1
    18    44    45    1
    19    45    46    1
    20    15     6    1
    21    15    16   ar
    22    16    21    2
    23    16    17   ar
    24    17    23    1
    25    17    18   ar
    26    18    19   ar
    27    19    20   ar
    28    15    20   ar
    29    18    22    2
    30     6     7    1
    31     6    11    1
    32     7     9    1
    33     7     8    1
    34     8    13    1
    35     9    10    1
    36     9    12    1
    37    10     5    1
    38    10    11    1
    39    12    14    1
    40     5     4    1
    41     4     1    1
    42     1     2    1
    43     1    24    1
    44     1     3    2
    45    24    25    1
    46    28    25    1
    47    25    26    1
    48    25    27    2
@<TRIPOS>MOLECULE
UD2
 46 48 0 0 0
SMALL
GASTEIGER

@<TRIPOS>ATOM
      1 P          22.8710   72.1139   -3.2229 P.3     1  UNL1        0.2189
      2 O          23.4671   70.6189   -3.1913 O.3     1  UNL1       -0.4371
      3 O          23.5664   72.9011   -4.2648 O.2     1  UNL1       -0.5170
      4 O          21.2962   72.0566   -3.5551 O.3     1  UNL1       -0.3112
      5 C          20.2881   72.0470   -2.5426 C.3     1  UNL1        0.1811
      6 C          18.0015   71.3803   -5.2377 C.3     1  UNL1        0.2383
      7 C          17.9898   70.0847   -4.3872 C.3     1  UNL1        0.1895
      8 O          16.7166   69.4398   -4.4576 O.3     1  UNL1       -0.3779
      9 C          18.2554   70.6287   -2.9621 C.3     1  UNL1        0.1713
     10 C          18.9062   72.0048   -3.1996 C.3     1  UNL1        0.1764
     11 O          19.0347   72.1779   -4.6198 O.3     1  UNL1       -0.3308
     12 O          17.0277   70.7725   -2.2461 O.3     1  UNL1       -0.3794
     13 H          16.6597   68.6240   -3.9421 H       1  UNL1        0.2106
     14 H          16.5459   69.9440   -2.1195 H       1  UNL1        0.2105
     15 N          18.3438   71.0805   -6.6298 N.ar    1  UNL1       -0.2551
     16 C          17.3653   70.8247   -7.5164 C.ar    1  UNL1        0.3323
     17 N          17.6509   70.5459   -8.8020 N.ar    1  UNL1       -0.2743
     18 C          18.9319   70.5208   -9.2227 C.ar    1  UNL1        0.2626
     19 C          19.9718   70.7892   -8.3004 C.ar    1  UNL1        0.0795
     20 C          19.6563   71.0699   -7.0185 C.ar    1  UNL1        0.0869
     21 O          16.2058   70.8440   -7.1511 O.2     1  UNL1       -0.2464
     22 O          19.1917   70.2690  -10.3862 O.2     1  UNL1       -0.2670
     23 H          16.9334   70.3625   -9.4279 H       1  UNL1        0.1734
     24 O          23.0909   72.8101   -1.7875 O.3     1  UNL1       -0.2703
     25 P          23.0793   74.3354   -1.2714 P.3     1  UNL1        0.2208
     26 O          24.5537   74.9647   -1.4252 O.3     1  UNL1       -0.4371
     27 O          22.1211   75.1222   -2.0783 O.2     1  UNL1       -0.5170
     28 O          22.6373   74.3747    0.2765 O.3     1  UNL1       -0.2865
     29 C          23.3572   73.6986    1.3090 C.3     1  UNL1        0.2611
     30 C          22.4695   72.6147    1.9255 C.3     1  UNL1        0.1582
     31 C          21.2449   73.2740    2.5674 C.3     1  UNL1        0.1625
     32 C          21.7144   74.2986    3.6037 C.3     1  UNL1        0.1686
     33 C          22.6314   75.3178    2.9223 C.3     1  UNL1        0.1760
     34 O          20.4475   72.2763    3.2094 O.3     1  UNL1       -0.3801
     35 O          22.4309   73.6315    4.6443 O.3     1  UNL1       -0.3794
     36 O          23.7334   74.6365    2.3195 O.3     1  UNL1       -0.3263
     37 H          19.6530   72.6238    3.6374 H       1  UNL1        0.2105
     38 H          22.7595   74.2214    5.3372 H       1  UNL1        0.2105
     39 C          22.4897   70.4176    0.8720 C.2     1  UNL1        0.2231
     40 C          22.0420   69.4618   -0.2026 C.3     1  UNL1        0.0946
     41 N          22.0338   71.6857    0.8797 N.am    1  UNL1       -0.2994
     42 O          23.2613   70.0460    1.7315 O.2     1  UNL1       -0.2751
     43 H          21.4176   71.9835    0.1922 H       1  UNL1        0.1496
     44 C          23.1527   76.3104    3.9631 C.3     1  UNL1        0.1693
     45 O          24.4385   75.8887    4.4225 O.3     1  UNL1       -0.3794
     46 H          24.8307   76.4726    5.0861 H       1  UNL1        0.2105
@<TRIPOS>BOND
     1    29    30    1
     2    30    41    1
     3    30    31    1
     4    31    34    1
     5    31    32    1
     6    32    35    1
     7    32    33    1
     8    33    36    1
     9    33    44    1
    10    39    40    1
    11    39    42    2
    12    39    41   am
    13    41    43    1
    14    29    28    1
    15    34    37    1
    16    35    38    1
    17    29    36    1
    18    44    45    1
    19    45    46    1
    20    15     6    1
    21    15    16   ar
    22    16    21    2
    23    16    17   ar
    24    17    23    1
    25    17    18   ar
    26    18    19   ar
    27    19    20   ar
    28    15    20   ar
    29    18    22    2
    30     6     7    1
    31     6    11    1
    32     7     9    1
    33     7     8    1
    34     8    13    1
    35     9    10    1
    36     9    12    1
    37    10     5    1
    38    10    11    1
    39    12    14    1
    40     5     4    1
    41     4     1    1
    42     1     2    1
    43     1    24    1
    44     1     3    2
    45    24    25    1
    46    28    25    1
    47    25    26    1
    48    25    27    2
@<TRIPOS>MOLECULE
UD2
 46 48 0 0 0
SMALL
GASTEIGER

@<TRIPOS>ATOM
      1 P          21.6749   70.6670   -0.3726 P.3     1  UNL1        0.2189
      2 O          21.6097   69.2927    0.4630 O.3     1  UNL1       -0.4371
      3 O          23.0440   70.8607   -0.8988 O.2     1  UNL1       -0.5170
      4 O          20.6331   70.5993   -1.5989 O.3     1  UNL1       -0.3112
      5 C          20.6311   71.5447   -2.6701 C.3     1  UNL1        0.1811
      6 C          18.1774   71.1901   -5.2759 C.3     1  UNL1        0.2383
      7 C          18.0980   69.8612   -4.4823 C.3     1  UNL1        0.1895
      8 O          16.7742   69.3243   -4.5177 O.3     1  UNL1       -0.3779
      9 C          18.4719   70.3148   -3.0499 C.3     1  UNL1        0.1713
     10 C          19.2221   71.6440   -3.2597 C.3     1  UNL1        0.1764
     11 O          19.2997   71.8726   -4.6757 O.3     1  UNL1       -0.3308
     12 O          17.2939   70.5227   -2.2690 O.3     1  UNL1       -0.3794
     13 H          16.6739   68.4923   -4.0356 H       1  UNL1        0.2106
     14 H          16.7519   69.7304   -2.1546 H       1  UNL1        0.2105
     15 N          18.4303   70.9294   -6.6947 N.ar    1  UNL1       -0.2551
     16 C          17.3947   70.7743   -7.5387 C.ar    1  UNL1        0.3323
     17 N          17.5977   70.5336   -8.8475 N.ar    1  UNL1       -0.2743
     18 C          18.8521   70.4456   -9.3349 C.ar    1  UNL1        0.2626
     19 C          19.9515   70.6077   -8.4579 C.ar    1  UNL1        0.0795
     20 C          19.7186   70.8524   -7.1512 C.ar    1  UNL1        0.0869
     21 O          16.2583   70.8513   -7.1132 O.2     1  UNL1       -0.2464
     22 O          19.0372   70.2281  -10.5193 O.2     1  UNL1       -0.2670
     23 H          16.8398   70.4231   -9.4420 H       1  UNL1        0.1734
     24 O          21.2902   71.8994    0.5899 O.3     1  UNL1       -0.2703
     25 P          21.9946   72.5829    1.8665 P.3     1  UNL1        0.2208
     26 O          22.8707   71.4814    2.6493 O.3     1  UNL1       -0.4371
     27 O          22.8751   73.6824    1.4146 O.2     1  UNL1       -0.5170
     28 O          20.8649   73.1701    2.8523 O.3     1  UNL1       -0.2865
     29 C          20.8548   74.5251    3.3052 C.3     1  UNL1        0.2611
     30 C          21.6420   74.6327    4.6134 C.3     1  UNL1        0.1582
     31 C          20.9551   73.7793    5.6841 C.3     1  UNL1        0.1625
     32 C          19.5047   74.2445    5.8395 C.3     1  UNL1        0.1686
     33 C          18.7997   74.1517    4.4836 C.3     1  UNL1        0.1760
     34 O          21.6415   73.9319    6.9287 O.3     1  UNL1       -0.3801
     35 O          19.4835   75.5975    6.2979 O.3     1  UNL1       -0.3794
     36 O          19.5062   74.9430    3.5262 O.3     1  UNL1       -0.3263
     37 H          21.2601   73.4175    7.6534 H       1  UNL1        0.2105
     38 H          18.5941   75.9588    6.4182 H       1  UNL1        0.2105
     39 C          24.0479   74.7998    4.9617 C.2     1  UNL1        0.2231
     40 C          25.4532   74.3023    4.7465 C.3     1  UNL1        0.0946
     41 N          23.0086   74.1483    4.4034 N.am    1  UNL1       -0.2994
     42 O          23.8509   75.7877    5.6379 O.2     1  UNL1       -0.2751
     43 H          23.1658   73.3590    3.8619 H       1  UNL1        0.1496
     44 C          17.3670   74.6711    4.6174 C.3     1  UNL1        0.1693
     45 O          17.1544   75.7309    3.6826 O.3     1  UNL1       -0.3794
     46 H          16.2650   76.1092    3.7115 H       1  UNL1        0.2105
@<TRIPOS>BOND
     1    29    30    1
     2    30    41    1
     3    30    31    1
     4    31    34    1
     5    31    32    1
     6    32    35    1
     7    32    33    1
     8    33    36    1
     9    33    44    1
    10    39    40    1
    11    39    42    2
    12    39    41   am
    13    41    43    1
    14    29    28    1
    15    34    37    1
    16    35    38    1
    17    29    36    1
    18    44    45    1
    19    45    46    1
    20    15     6    1
    21    15    16   ar
    22    16    21    2
    23    16    17   ar
    24    17    23    1
    25    17    18   ar
    26    18    19   ar
    27    19    20   ar
    28    15    20   ar
    29    18    22    2
    30     6     7    1
    31     6    11    1
    32     7     9    1
    33     7     8    1
    34     8    13    1
    35     9    10    1
    36     9    12    1
    37    10     5    1
    38    10    11    1
    39    12    14    1
    40     5     4    1
    41     4     1    1
    42     1     2    1
    43     1    24    1
    44     1     3    2
    45    24    25    1
    46    28    25    1
    47    25    26    1
    48    25    27    2
@<TRIPOS>MOLECULE
UD2
 46 48 0 0 0
SMALL
GASTEIGER

@<TRIPOS>ATOM
      1 P          21.4515   72.7051   -6.3165 P.3     1  UNL1        0.2189
      2 O          22.8877   73.0027   -6.9799 O.3     1  UNL1       -0.4371
      3 O          20.6635   73.9562   -6.2629 O.2     1  UNL1       -0.5170
      4 O          20.6665   71.6139   -7.2035 O.3     1  UNL1       -0.3112
      5 C          19.4826   70.9527   -6.7534 C.3     1  UNL1        0.1811
      6 C          16.9863   72.9907   -8.3507 C.3     1  UNL1        0.2383
      7 C          18.2347   73.1192   -9.2602 C.3     1  UNL1        0.1895
      8 O          17.8544   73.3178  -10.6232 O.3     1  UNL1       -0.3779
      9 C          18.9173   71.7423   -9.0721 C.3     1  UNL1        0.1713
     10 C          18.3443   71.2165   -7.7421 C.3     1  UNL1        0.1764
     11 O          17.4704   72.2310   -7.2220 O.3     1  UNL1       -0.3308
     12 O          18.5751   70.8649  -10.1463 O.3     1  UNL1       -0.3794
     13 H          18.6009   73.4045  -11.2314 H       1  UNL1        0.2106
     14 H          18.8601   71.1767  -11.0158 H       1  UNL1        0.2105
     15 N          16.5217   74.3121   -7.9227 N.ar    1  UNL1       -0.2551
     16 C          15.2733   74.7100   -8.2259 C.ar    1  UNL1        0.3323
     17 N          14.8199   75.9191   -7.8454 N.ar    1  UNL1       -0.2743
     18 C          15.6168   76.7541   -7.1480 C.ar    1  UNL1        0.2626
     19 C          16.9329   76.3477   -6.8210 C.ar    1  UNL1        0.0795
     20 C          17.3597   75.1284   -7.2116 C.ar    1  UNL1        0.0869
     21 O          14.5437   73.9674   -8.8541 O.2     1  UNL1       -0.2464
     22 O          15.2075   77.8485   -6.8027 O.2     1  UNL1       -0.2670
     23 H          13.9175   76.1908   -8.0734 H       1  UNL1        0.1734
     24 O          21.6569   72.1355   -4.8243 O.3     1  UNL1       -0.2703
     25 P          22.7954   72.3264   -3.7017 P.3     1  UNL1        0.2208
     26 O          23.3373   70.8829   -3.2367 O.3     1  UNL1       -0.4371
     27 O          23.9141   73.1154   -4.2624 O.2     1  UNL1       -0.5170
     28 O          22.1743   73.1009   -2.4340 O.3     1  UNL1       -0.2865
     29 C          22.9484   73.9498   -1.5846 C.3     1  UNL1        0.2611
     30 C          22.6222   73.6432   -0.1210 C.3     1  UNL1        0.1582
     31 C          21.1439   73.9489    0.1385 C.3     1  UNL1        0.1625
     32 C          20.8643   75.4098   -0.2248 C.3     1  UNL1        0.1686
     33 C          21.2584   75.6483   -1.6849 C.3     1  UNL1        0.1760
     34 O          20.8478   73.7354    1.5206 O.3     1  UNL1       -0.3801
     35 O          21.6298   76.2678    0.6233 O.3     1  UNL1       -0.3794
     36 O          22.6364   75.3159   -1.8651 O.3     1  UNL1       -0.3263
     37 H          19.9264   73.9098    1.7565 H       1  UNL1        0.2105
     38 H          21.5024   77.2107    0.4482 H       1  UNL1        0.2105
     39 C          21.9083   71.3157   -0.0188 C.2     1  UNL1        0.2231
     40 C          22.1777   69.8607    0.2623 C.3     1  UNL1        0.0946
     41 N          22.8850   72.2281    0.1529 N.am    1  UNL1       -0.2994
     42 O          20.8113   71.6670   -0.4000 O.2     1  UNL1       -0.2751
     43 H          23.7619   71.9478    0.4586 H       1  UNL1        0.1496
     44 C          21.0380   77.1204   -2.0384 C.3     1  UNL1        0.1693
     45 O          19.8597   77.5967   -1.3849 O.3     1  UNL1       -0.3794
     46 H          19.6578   78.5252   -1.5644 H       1  UNL1        0.2105
@<TRIPOS>BOND
     1    29    30    1
     2    30    41    1
     3    30    31    1
     4    31    34    1
     5    31    32    1
     6    32    35    1
     7    32    33    1
     8    33    36    1
     9    33    44    1
    10    39    40    1
    11    39    42    2
    12    39    41   am
    13    41    43    1
    14    29    28    1
    15    34    37    1
    16    35    38    1
    17    29    36    1
    18    44    45    1
    19    45    46    1
    20    15     6    1
    21    15    16   ar
    22    16    21    2
    23    16    17   ar
    24    17    23    1
    25    17    18   ar
    26    18    19   ar
    27    19    20   ar
    28    15    20   ar
    29    18    22    2
    30     6     7    1
    31     6    11    1
    32     7     9    1
    33     7     8    1
    34     8    13    1
    35     9    10    1
    36     9    12    1
    37    10     5    1
    38    10    11    1
    39    12    14    1
    40     5     4    1
    41     4     1    1
    42     1     2    1
    43     1    24    1
    44     1     3    2
    45    24    25    1
    46    28    25    1
    47    25    26    1
    48    25    27    2
@<TRIPOS>MOLECULE
UD2
 46 48 0 0 0
SMALL
GASTEIGER

@<TRIPOS>ATOM
      1 P          22.1673   70.2987   -0.2633 P.3     1  UNL1        0.2189
      2 O          22.8610   68.9280    0.2179 O.3     1  UNL1       -0.4371
      3 O          20.7201   70.0730   -0.4721 O.2     1  UNL1       -0.5170
      4 O          22.3771   71.4304    0.8631 O.3     1  UNL1       -0.3112
      5 C          21.3117   72.2474    1.3518 C.3     1  UNL1        0.1811
      6 C          22.8428   73.9458    4.1281 C.3     1  UNL1        0.2383
      7 C          21.5597   74.7628    3.8311 C.3     1  UNL1        0.1895
      8 O          21.0441   75.3547    5.0251 O.3     1  UNL1       -0.3779
      9 C          20.5980   73.6744    3.2945 C.3     1  UNL1        0.1713
     10 C          21.5327   72.5377    2.8384 C.3     1  UNL1        0.1764
     11 O          22.8820   72.9807    3.0545 O.3     1  UNL1       -0.3308
     12 O          19.7283   73.2210    4.3331 O.3     1  UNL1       -0.3794
     13 H          20.2416   75.8768    4.8907 H       1  UNL1        0.2106
     14 H          19.1580   73.9106    4.6986 H       1  UNL1        0.2105
     15 N          24.0249   74.8096    4.0892 N.ar    1  UNL1       -0.2551
     16 C          24.4696   75.3820    5.2221 C.ar    1  UNL1        0.3323
     17 N          25.5533   76.1806    5.2157 N.ar    1  UNL1       -0.2743
     18 C          26.2145   76.4182    4.0646 C.ar    1  UNL1        0.2626
     19 C          25.7580   75.8214    2.8648 C.ar    1  UNL1        0.0795
     20 C          24.6713   75.0218    2.9013 C.ar    1  UNL1        0.0869
     21 O          23.8834   75.1764    6.2673 O.2     1  UNL1       -0.2464
     22 O          27.1957   77.1405    4.0575 O.2     1  UNL1       -0.2670
     23 H          25.8598   76.5863    6.0413 H       1  UNL1        0.1734
     24 O          22.8396   70.7851   -1.6434 O.3     1  UNL1       -0.2703
     25 P          22.5444   71.9939   -2.6655 P.3     1  UNL1        0.2208
     26 O          22.5404   73.3884   -1.8599 O.3     1  UNL1       -0.4371
     27 O          23.5959   72.0288   -3.7055 O.2     1  UNL1       -0.5170
     28 O          21.1091   71.7708   -3.3602 O.3     1  UNL1       -0.2865
     29 C          20.8983   71.8923   -4.7681 C.3     1  UNL1        0.2611
     30 C          20.4404   73.3156   -5.0955 C.3     1  UNL1        0.1582
     31 C          19.1025   73.5850   -4.4000 C.3     1  UNL1        0.1625
     32 C          18.0858   72.5310   -4.8467 C.3     1  UNL1        0.1686
     33 C          18.6345   71.1375   -4.5287 C.3     1  UNL1        0.1760
     34 O          18.6312   74.8857   -4.7595 O.3     1  UNL1       -0.3801
     35 O          17.8634   72.6477   -6.2532 O.3     1  UNL1       -0.3794
     36 O          19.8940   70.9631   -5.1809 O.3     1  UNL1       -0.3263
     37 H          17.7865   75.1237   -4.3533 H       1  UNL1        0.2105
     38 H          17.2288   72.0084   -6.6062 H       1  UNL1        0.2105
     39 C          21.7979   75.3171   -5.3936 C.2     1  UNL1        0.2231
     40 C          22.8268   76.3024   -4.9046 C.3     1  UNL1        0.0946
     41 N          21.4415   74.2734   -4.6192 N.am    1  UNL1       -0.2994
     42 O          21.2892   75.4627   -6.4855 O.2     1  UNL1       -0.2751
     43 H          21.8487   74.1560   -3.7466 H       1  UNL1        0.1496
     44 C          17.6510   70.0766   -5.0262 C.3     1  UNL1        0.1693
     45 O          16.7813   69.6943   -3.9586 O.3     1  UNL1       -0.3794
     46 H          16.1296   69.0229   -4.2026 H       1  UNL1        0.2105
@<TRIPOS>BOND
     1    29    30    1
     2    30    41    1
     3    30    31    1
     4    31    34    1
     5    31    32    1
     6    32    35    1
     7    32    33    1
     8    33    36    1
     9    33    44    1
    10    39    40    1
    11    39    42    2
    12    39    41   am
    13    41    43    1
    14    29    28    1
    15    34    37    1
    16    35    38    1
    17    29    36    1
    18    44    45    1
    19    45    46    1
    20    15     6    1
    21    15    16   ar
    22    16    21    2
    23    16    17   ar
    24    17    23    1
    25    17    18   ar
    26    18    19   ar
    27    19    20   ar
    28    15    20   ar
    29    18    22    2
    30     6     7    1
    31     6    11    1
    32     7     9    1
    33     7     8    1
    34     8    13    1
    35     9    10    1
    36     9    12    1
    37    10     5    1
    38    10    11    1
    39    12    14    1
    40     5     4    1
    41     4     1    1
    42     1     2    1
    43     1    24    1
    44     1     3    2
    45    24    25    1
    46    28    25    1
    47    25    26    1
    48    25    27    2
@<TRIPOS>MOLECULE
UD2
 46 48 0 0 0
SMALL
GASTEIGER

@<TRIPOS>ATOM
      1 P          22.9445   71.9173   -3.2495 P.3     1  UNL1        0.2189
      2 O          23.9026   72.8970   -4.0943 O.3     1  UNL1       -0.4371
      3 O          23.5359   70.5617   -3.2098 O.2     1  UNL1       -0.5170
      4 O          22.7911   72.4801   -1.7484 O.3     1  UNL1       -0.3112
      5 C          22.7454   71.6304   -0.6007 C.3     1  UNL1        0.1811
      6 C          21.7295   73.5839    2.2433 C.3     1  UNL1        0.2383
      7 C          21.5246   74.5262    1.0299 C.3     1  UNL1        0.1895
      8 O          20.4438   75.4312    1.2637 O.3     1  UNL1       -0.3779
      9 C          21.1748   73.5286   -0.1013 C.3     1  UNL1        0.1713
     10 C          21.7273   72.1810    0.4009 C.3     1  UNL1        0.1764
     11 O          22.3669   72.4248    1.6639 O.3     1  UNL1       -0.3308
     12 O          19.7595   73.4538   -0.2806 O.3     1  UNL1       -0.3794
     13 H          20.2767   76.0419    0.5331 H       1  UNL1        0.2106
     14 H          19.3504   74.2904   -0.5399 H       1  UNL1        0.2105
     15 N          22.6019   74.2087    3.2400 N.ar    1  UNL1       -0.2551
     16 C          22.5922   73.7610    4.5082 C.ar    1  UNL1        0.3323
     17 N          23.3834   74.3166    5.4451 N.ar    1  UNL1       -0.2743
     18 C          24.2044   75.3365    5.1222 C.ar    1  UNL1        0.2626
     19 C          24.2256   75.8170    3.7908 C.ar    1  UNL1        0.0795
     20 C          23.4249   75.2385    2.8711 C.ar    1  UNL1        0.0869
     21 O          21.8570   72.8420    4.8136 O.2     1  UNL1       -0.2464
     22 O          24.9213   75.8399    5.9691 O.2     1  UNL1       -0.2670
     23 H          23.3631   73.9825    6.3551 H       1  UNL1        0.1734
     24 O          21.4949   71.8506   -3.9477 O.3     1  UNL1       -0.2703
     25 P          20.1645   70.9836   -3.6809 P.3     1  UNL1        0.2208
     26 O          20.5658   69.4394   -3.4615 O.3     1  UNL1       -0.4371
     27 O          19.4789   71.4909   -2.4722 O.2     1  UNL1       -0.5170
     28 O          19.1799   71.1077   -4.9489 O.3     1  UNL1       -0.2865
     29 C          19.1588   72.2480   -5.8094 C.3     1  UNL1        0.2611
     30 C          17.7190   72.7427   -5.9674 C.3     1  UNL1        0.1582
     31 C          16.8808   71.6448   -6.6295 C.3     1  UNL1        0.1625
     32 C          17.5167   71.2712   -7.9713 C.3     1  UNL1        0.1686
     33 C          18.9647   70.8331   -7.7360 C.3     1  UNL1        0.1760
     34 O          15.5523   72.1249   -6.8479 O.3     1  UNL1       -0.3801
     35 O          17.4954   72.4039   -8.8419 O.3     1  UNL1       -0.3794
     36 O          19.6807   71.8876   -7.0900 O.3     1  UNL1       -0.3263
     37 H          14.9648   71.4796   -7.2646 H       1  UNL1        0.2105
     38 H          17.8843   72.2392   -9.7123 H       1  UNL1        0.2105
     39 C          16.4881   72.1137   -3.9607 C.2     1  UNL1        0.2231
     40 C          15.9152   72.4351   -2.6052 C.3     1  UNL1        0.0946
     41 N          17.1619   73.0561   -4.6491 N.am    1  UNL1       -0.2994
     42 O          16.3430   71.0058   -4.4335 O.2     1  UNL1       -0.2751
     43 H          17.2772   73.9424   -4.2718 H       1  UNL1        0.1496
     44 C          19.6257   70.5151   -9.0785 C.3     1  UNL1        0.1693
     45 O          18.6182   70.2200  -10.0483 O.3     1  UNL1       -0.3794
     46 H          18.9658   70.0085  -10.9255 H       1  UNL1        0.2105
@<TRIPOS>BOND
     1    29    30    1
     2    30    41    1
     3    30    31    1
     4    31    34    1
     5    31    32    1
     6    32    35    1
     7    32    33    1
     8    33    36    1
     9    33    44    1
    10    39    40    1
    11    39    42    2
    12    39    41   am
    13    41    43    1
    14    29    28    1
    15    34    37    1
    16    35    38    1
    17    29    36    1
    18    44    45    1
    19    45    46    1
    20    15     6    1
    21    15    16   ar
    22    16    21    2
    23    16    17   ar
    24    17    23    1
    25    17    18   ar
    26    18    19   ar
    27    19    20   ar
    28    15    20   ar
    29    18    22    2
    30     6     7    1
    31     6    11    1
    32     7     9    1
    33     7     8    1
    34     8    13    1
    35     9    10    1
    36     9    12    1
    37    10     5    1
    38    10    11    1
    39    12    14    1
    40     5     4    1
    41     4     1    1
    42     1     2    1
    43     1    24    1
    44     1     3    2
    45    24    25    1
    46    28    25    1
    47    25    26    1
    48    25    27    2
@<TRIPOS>MOLECULE
UD2
 46 48 0 0 0
SMALL
GASTEIGER

@<TRIPOS>ATOM
      1 P          22.0553   70.8470   -2.7144 P.3     1  UNL1        0.2189
      2 O          23.5503   70.7213   -3.2979 O.3     1  UNL1       -0.4371
      3 O          21.2838   69.6350   -3.0675 O.2     1  UNL1       -0.5170
      4 O          22.1156   70.9969   -1.1120 O.3     1  UNL1       -0.3112
      5 C          21.0151   71.4712   -0.3339 C.3     1  UNL1        0.1811
      6 C          21.6875   74.1986    1.9123 C.3     1  UNL1        0.2383
      7 C          23.0804   73.7866    1.3717 C.3     1  UNL1        0.1895
      8 O          23.9585   74.9123    1.3138 O.3     1  UNL1       -0.3779
      9 C          22.7398   73.2780   -0.0506 C.3     1  UNL1        0.1713
     10 C          21.2374   72.9440    0.0187 C.3     1  UNL1        0.1764
     11 O          20.8050   73.1947    1.3654 O.3     1  UNL1       -0.3308
     12 O          22.9810   74.3015   -1.0175 O.3     1  UNL1       -0.3794
     13 H          24.8427   74.7051    0.9823 H       1  UNL1        0.2106
     14 H          23.9018   74.5925   -1.0620 H       1  UNL1        0.2105
     15 N          21.6701   74.1591    3.3763 N.ar    1  UNL1       -0.2551
     16 C          21.8617   72.9904    4.0137 C.ar    1  UNL1        0.3323
     17 N          21.8507   72.9247    5.3582 N.ar    1  UNL1       -0.2743
     18 C          21.6476   74.0387    6.0906 C.ar    1  UNL1        0.2626
     19 C          21.4455   75.2758    5.4327 C.ar    1  UNL1        0.0795
     20 C          21.4659   75.3131    4.0838 C.ar    1  UNL1        0.0869
     21 O          22.0463   71.9780    3.3661 O.2     1  UNL1       -0.2464
     22 O          21.6377   73.9806    7.3076 O.2     1  UNL1       -0.2670
     23 H          21.9893   72.0737    5.8018 H       1  UNL1        0.1734
     24 O          21.3390   72.1430   -3.3474 O.3     1  UNL1       -0.2703
     25 P          21.2430   72.7525   -4.8348 P.3     1  UNL1        0.2208
     26 O          20.8582   74.3141   -4.7504 O.3     1  UNL1       -0.4371
     27 O          22.5482   72.6027   -5.5147 O.2     1  UNL1       -0.5170
     28 O          20.1110   71.9645   -5.6655 O.3     1  UNL1       -0.2865
     29 C          18.9735   72.6119   -6.2384 C.3     1  UNL1        0.2611
     30 C          17.6990   71.8820   -5.8076 C.3     1  UNL1        0.1582
     31 C          17.7365   70.4475   -6.3435 C.3     1  UNL1        0.1625
     32 C          17.8967   70.4867   -7.8657 C.3     1  UNL1        0.1686
     33 C          19.1639   71.2705   -8.2172 C.3     1  UNL1        0.1760
     34 O          16.5173   69.7809   -6.0085 O.3     1  UNL1       -0.3801
     35 O          16.7608   71.1275   -8.4492 O.3     1  UNL1       -0.3794
     36 O          19.0780   72.5850   -7.6634 O.3     1  UNL1       -0.3263
     37 H          16.4724   68.8655   -6.3170 H       1  UNL1        0.2105
     38 H          16.7951   71.1883   -9.4141 H       1  UNL1        0.2105
     39 C          16.4336   72.0290   -3.7304 C.2     1  UNL1        0.2231
     40 C          16.3520   72.0026   -2.2266 C.3     1  UNL1        0.0946
     41 N          17.6205   71.8564   -4.3448 N.am    1  UNL1       -0.2994
     42 O          15.4303   72.2059   -4.3895 O.2     1  UNL1       -0.2751
     43 H          18.4230   71.7159   -3.8183 H       1  UNL1        0.1496
     44 C          19.2992   71.3654   -9.7382 C.3     1  UNL1        0.1693
     45 O          18.4815   72.4319  -10.2243 O.3     1  UNL1       -0.3794
     46 H          18.5179   72.5505  -11.1832 H       1  UNL1        0.2105
@<TRIPOS>BOND
     1    29    30    1
     2    30    41    1
     3    30    31    1
     4    31    34    1
     5    31    32    1
     6    32    35    1
     7    32    33    1
     8    33    36    1
     9    33    44    1
    10    39    40    1
    11    39    42    2
    12    39    41   am
    13    41    43    1
    14    29    28    1
    15    34    37    1
    16    35    38    1
    17    29    36    1
    18    44    45    1
    19    45    46    1
    20    15     6    1
    21    15    16   ar
    22    16    21    2
    23    16    17   ar
    24    17    23    1
    25    17    18   ar
    26    18    19   ar
    27    19    20   ar
    28    15    20   ar
    29    18    22    2
    30     6     7    1
    31     6    11    1
    32     7     9    1
    33     7     8    1
    34     8    13    1
    35     9    10    1
    36     9    12    1
    37    10     5    1
    38    10    11    1
    39    12    14    1
    40     5     4    1
    41     4     1    1
    42     1     2    1
    43     1    24    1
    44     1     3    2
    45    24    25    1
    46    28    25    1
    47    25    26    1
    48    25    27    2
@<TRIPOS>MOLECULE
UD2
 46 48 0 0 0
SMALL
GASTEIGER

@<TRIPOS>ATOM
      1 P          22.6671   73.5681   -3.7411 P.3     1  UNL1        0.2189
      2 O          23.2486   74.8972   -3.0436 O.3     1  UNL1       -0.4371
      3 O          23.7857   72.6694   -4.1012 O.2     1  UNL1       -0.5170
      4 O          21.6800   72.8128   -2.7170 O.3     1  UNL1       -0.3112
      5 C          21.5174   73.2144   -1.3555 C.3     1  UNL1        0.1811
      6 C          23.2007   72.4111    1.7199 C.3     1  UNL1        0.2383
      7 C          22.4496   71.1110    1.3357 C.3     1  UNL1        0.1895
      8 O          23.1578   69.9581    1.7950 O.3     1  UNL1       -0.3779
      9 C          22.4505   71.1799   -0.2112 C.3     1  UNL1        0.1713
     10 C          22.6804   72.6713   -0.5215 C.3     1  UNL1        0.1764
     11 O          22.7465   73.3645    0.7348 O.3     1  UNL1       -0.3308
     12 O          23.5127   70.3879   -0.7452 O.3     1  UNL1       -0.3794
     13 H          22.7273   69.1198    1.5792 H       1  UNL1        0.2106
     14 H          23.4501   69.4476   -0.5296 H       1  UNL1        0.2105
     15 N          22.8265   72.8438    3.0681 N.ar    1  UNL1       -0.2551
     16 C          21.6012   72.5585    3.5435 C.ar    1  UNL1        0.3323
     17 N          21.2303   72.9439    4.7788 N.ar    1  UNL1       -0.2743
     18 C          22.0895   73.6252    5.5639 C.ar    1  UNL1        0.2626
     19 C          23.3829   73.9313    5.0767 C.ar    1  UNL1        0.0795
     20 C          23.7294   73.5289    3.8359 C.ar    1  UNL1        0.0869
     21 O          20.8162   71.9447    2.8467 O.2     1  UNL1       -0.2464
     22 O          21.7551   73.9742    6.6823 O.2     1  UNL1       -0.2670
     23 H          20.3425   72.7311    5.1056 H       1  UNL1        0.1734
     24 O          21.8531   73.9717   -5.0708 O.3     1  UNL1       -0.2703
     25 P          21.0705   73.1324   -6.2003 P.3     1  UNL1        0.2208
     26 O          20.3574   74.1490   -7.2260 O.3     1  UNL1       -0.4371
     27 O          22.0306   72.2819   -6.9372 O.2     1  UNL1       -0.5170
     28 O          19.9556   72.2035   -5.5026 O.3     1  UNL1       -0.2865
     29 C          19.7606   70.8304   -5.8457 C.3     1  UNL1        0.2611
     30 C          18.4574   70.6807   -6.6344 C.3     1  UNL1        0.1582
     31 C          17.2830   71.1103   -5.7496 C.3     1  UNL1        0.1625
     32 C          17.2872   70.2691   -4.4703 C.3     1  UNL1        0.1686
     33 C          18.6358   70.4348   -3.7649 C.3     1  UNL1        0.1760
     34 O          16.0556   70.9043   -6.4527 O.3     1  UNL1       -0.3801
     35 O          17.0870   68.8939   -4.8022 O.3     1  UNL1       -0.3794
     36 O          19.6866   70.0475   -4.6525 O.3     1  UNL1       -0.3263
     37 H          15.2683   71.1565   -5.9509 H       1  UNL1        0.2105
     38 H          17.0790   68.3012   -4.0376 H       1  UNL1        0.2105
     39 C          19.2197   71.1386   -8.9030 C.2     1  UNL1        0.2231
     40 C          19.2714   72.0102  -10.1304 C.3     1  UNL1        0.0946
     41 N          18.5074   71.5291   -7.8278 N.am    1  UNL1       -0.2994
     42 O          19.8196   70.0842   -8.8819 O.2     1  UNL1       -0.2751
     43 H          18.0284   72.3725   -7.8439 H       1  UNL1        0.1496
     44 C          18.6703   69.5508   -2.5167 C.3     1  UNL1        0.1693
     45 O          19.9651   69.6233   -1.9164 O.3     1  UNL1       -0.3794
     46 H          20.0598   69.0860   -1.1180 H       1  UNL1        0.2105
@<TRIPOS>BOND
     1    29    30    1
     2    30    41    1
     3    30    31    1
     4    31    34    1
     5    31    32    1
     6    32    35    1
     7    32    33    1
     8    33    36    1
     9    33    44    1
    10    39    40    1
    11    39    42    2
    12    39    41   am
    13    41    43    1
    14    29    28    1
    15    34    37    1
    16    35    38    1
    17    29    36    1
    18    44    45    1
    19    45    46    1
    20    15     6    1
    21    15    16   ar
    22    16    21    2
    23    16    17   ar
    24    17    23    1
    25    17    18   ar
    26    18    19   ar
    27    19    20   ar
    28    15    20   ar
    29    18    22    2
    30     6     7    1
    31     6    11    1
    32     7     9    1
    33     7     8    1
    34     8    13    1
    35     9    10    1
    36     9    12    1
    37    10     5    1
    38    10    11    1
    39    12    14    1
    40     5     4    1
    41     4     1    1
    42     1     2    1
    43     1    24    1
    44     1     3    2
    45    24    25    1
    46    28    25    1
    47    25    26    1
    48    25    27    2
@<TRIPOS>MOLECULE
UD2
 46 48 0 0 0
SMALL
GASTEIGER

@<TRIPOS>ATOM
      1 P          21.7669   71.3385   -2.6581 P.3     1  UNL1        0.2189
      2 O          23.2049   72.0141   -2.3988 O.3     1  UNL1       -0.4371
      3 O          21.9520   69.9464   -3.1236 O.2     1  UNL1       -0.5170
      4 O          20.9194   71.3383   -1.2887 O.3     1  UNL1       -0.3112
      5 C          21.5134   71.5537   -0.0071 C.3     1  UNL1        0.1811
      6 C          21.6750   74.3619    2.2344 C.3     1  UNL1        0.2383
      7 C          23.1040   74.2514    1.6445 C.3     1  UNL1        0.1895
      8 O          23.7239   75.5364    1.5651 O.3     1  UNL1       -0.3779
      9 C          22.8293   73.6823    0.2309 C.3     1  UNL1        0.1713
     10 C          21.4336   73.0404    0.3482 C.3     1  UNL1        0.1764
     11 O          21.0046   73.1951    1.7103 O.3     1  UNL1       -0.3308
     12 O          22.8172   74.7336   -0.7363 O.3     1  UNL1       -0.3794
     13 H          24.6200   75.5193    1.2028 H       1  UNL1        0.2106
     14 H          23.6543   75.2113   -0.8096 H       1  UNL1        0.2105
     15 N          21.7164   74.3199    3.6978 N.ar    1  UNL1       -0.2551
     16 C          22.0572   73.1786    4.3223 C.ar    1  UNL1        0.3323
     17 N          22.1032   73.1112    5.6660 N.ar    1  UNL1       -0.2743
     18 C          21.8078   74.1961    6.4105 C.ar    1  UNL1        0.2626
     19 C          21.4485   75.4044    5.7662 C.ar    1  UNL1        0.0795
     20 C          21.4146   75.4445    4.4176 C.ar    1  UNL1        0.0869
     21 O          22.3262   72.1925    3.6637 O.2     1  UNL1       -0.2464
     22 O          21.8495   74.1366    7.6267 O.2     1  UNL1       -0.2670
     23 H          22.3497   72.2801    6.1003 H       1  UNL1        0.1734
     24 O          20.9732   72.1787   -3.7795 O.3     1  UNL1       -0.2703
     25 P          21.4291   73.0507   -5.0541 P.3     1  UNL1        0.2208
     26 O          21.3654   74.6165   -4.6830 O.3     1  UNL1       -0.4371
     27 O          22.8135   72.6893   -5.4298 O.2     1  UNL1       -0.5170
     28 O          20.4415   72.7511   -6.2901 O.3     1  UNL1       -0.2865
     29 C          20.5067   71.5532   -7.0660 C.3     1  UNL1        0.2611
     30 C          20.3587   71.8968   -8.5502 C.3     1  UNL1        0.1582
     31 C          18.9830   72.5284   -8.7844 C.3     1  UNL1        0.1625
     32 C          17.8997   71.5598   -8.3020 C.3     1  UNL1        0.1686
     33 C          18.1426   71.2291   -6.8270 C.3     1  UNL1        0.1760
     34 O          18.8071   72.7852  -10.1796 O.3     1  UNL1       -0.3801
     35 O          17.9527   70.3600   -9.0759 O.3     1  UNL1       -0.3794
     36 O          19.4504   70.6741   -6.6740 O.3     1  UNL1       -0.3263
     37 H          17.9556   73.1868  -10.4009 H       1  UNL1        0.2105
     38 H          17.2928   69.6989   -8.8237 H       1  UNL1        0.2105
     39 C          21.1780   74.1708   -8.8591 C.2     1  UNL1        0.2231
     40 C          22.2537   75.1463   -9.2591 C.3     1  UNL1        0.0946
     41 N          21.4055   72.8450   -8.9397 N.am    1  UNL1       -0.2994
     42 O          20.1056   74.5785   -8.4640 O.2     1  UNL1       -0.2751
     43 H          22.2623   72.5186   -9.2565 H       1  UNL1        0.1496
     44 C          17.0993   70.2154   -6.3533 C.3     1  UNL1        0.1693
     45 O          15.9577   70.2693   -7.2114 O.3     1  UNL1       -0.3794
     46 H          15.2540   69.6516   -6.9700 H       1  UNL1        0.2105
@<TRIPOS>BOND
     1    29    30    1
     2    30    41    1
     3    30    31    1
     4    31    34    1
     5    31    32    1
     6    32    35    1
     7    32    33    1
     8    33    36    1
     9    33    44    1
    10    39    40    1
    11    39    42    2
    12    39    41   am
    13    41    43    1
    14    29    28    1
    15    34    37    1
    16    35    38    1
    17    29    36    1
    18    44    45    1
    19    45    46    1
    20    15     6    1
    21    15    16   ar
    22    16    21    2
    23    16    17   ar
    24    17    23    1
    25    17    18   ar
    26    18    19   ar
    27    19    20   ar
    28    15    20   ar
    29    18    22    2
    30     6     7    1
    31     6    11    1
    32     7     9    1
    33     7     8    1
    34     8    13    1
    35     9    10    1
    36     9    12    1
    37    10     5    1
    38    10    11    1
    39    12    14    1
    40     5     4    1
    41     4     1    1
    42     1     2    1
    43     1    24    1
    44     1     3    2
    45    24    25    1
    46    28    25    1
    47    25    26    1
    48    25    27    2
@<TRIPOS>MOLECULE
UD2
 46 48 0 0 0
SMALL
GASTEIGER

@<TRIPOS>ATOM
      1 P          22.3303   70.4356   -0.1808 P.3     1  UNL1        0.2189
      2 O          23.1895   69.2026    0.3961 O.3     1  UNL1       -0.4371
      3 O          20.9139   70.0302   -0.3161 O.2     1  UNL1       -0.5170
      4 O          22.4370   71.6839    0.8312 O.3     1  UNL1       -0.3112
      5 C          21.3425   72.1287    1.6347 C.3     1  UNL1        0.1811
      6 C          23.3122   74.0425    3.9572 C.3     1  UNL1        0.2383
      7 C          21.9458   74.7725    3.9110 C.3     1  UNL1        0.1895
      8 O          21.6565   75.3933    5.1650 O.3     1  UNL1       -0.3779
      9 C          20.9642   73.6081    3.6315 C.3     1  UNL1        0.1713
     10 C          21.8525   72.5033    3.0284 C.3     1  UNL1        0.1764
     11 O          23.1860   73.0294    2.9358 O.3     1  UNL1       -0.3308
     12 O          20.3634   73.1594    4.8475 O.3     1  UNL1       -0.3794
     13 H          20.8120   75.8635    5.1859 H       1  UNL1        0.2106
     14 H          19.8400   73.8339    5.3008 H       1  UNL1        0.2105
     15 N          24.4019   74.9667    3.6359 N.ar    1  UNL1       -0.2551
     16 C          25.0602   75.5916    4.6284 C.ar    1  UNL1        0.3323
     17 N          26.0657   76.4463    4.3622 N.ar    1  UNL1       -0.2743
     18 C          26.4310   76.6883    3.0868 C.ar    1  UNL1        0.2626
     19 C          25.7473   76.0366    2.0323 C.ar    1  UNL1        0.0795
     20 C          24.7460   75.1816    2.3284 C.ar    1  UNL1        0.0869
     21 O          24.7417   75.3827    5.7830 O.2     1  UNL1       -0.2464
     22 O          27.3411   77.4614    2.8446 O.2     1  UNL1       -0.2670
     23 H          26.5290   76.8893    5.0896 H       1  UNL1        0.1734
     24 O          22.9065   70.8636   -1.6224 O.3     1  UNL1       -0.2703
     25 P          22.4977   71.9873   -2.7009 P.3     1  UNL1        0.2208
     26 O          22.3477   73.4104   -1.9619 O.3     1  UNL1       -0.4371
     27 O          23.5472   72.0796   -3.7394 O.2     1  UNL1       -0.5170
     28 O          21.0968   71.5880   -3.3870 O.3     1  UNL1       -0.2865
     29 C          20.2343   72.5426   -4.0084 C.3     1  UNL1        0.2611
     30 C          18.8930   72.5752   -3.2719 C.3     1  UNL1        0.1582
     31 C          18.2246   71.2016   -3.3852 C.3     1  UNL1        0.1625
     32 C          18.0656   70.8436   -4.8654 C.3     1  UNL1        0.1686
     33 C          19.4393   70.8778   -5.5406 C.3     1  UNL1        0.1760
     34 O          16.9383   71.2440   -2.7633 O.3     1  UNL1       -0.3801
     35 O          17.1997   71.7896   -5.4952 O.3     1  UNL1       -0.3794
     36 O          20.0191   72.1729   -5.3719 O.3     1  UNL1       -0.3263
     37 H          16.4577   70.4055   -2.7971 H       1  UNL1        0.2105
     38 H          17.0541   71.6242   -6.4372 H       1  UNL1        0.2105
     39 C          18.8872   74.1437   -1.4071 C.2     1  UNL1        0.2231
     40 C          19.1176   74.4738    0.0443 C.3     1  UNL1        0.0946
     41 N          19.1176   72.8955   -1.8600 N.am    1  UNL1       -0.2994
     42 O          18.4940   75.0018   -2.1695 O.2     1  UNL1       -0.2751
     43 H          19.4329   72.2094   -1.2511 H       1  UNL1        0.1496
     44 C          19.2814   70.5796   -7.0327 C.3     1  UNL1        0.1693
     45 O          20.1275   71.4513   -7.7855 O.3     1  UNL1       -0.3794
     46 H          20.0788   71.3183   -8.7421 H       1  UNL1        0.2105
@<TRIPOS>BOND
     1    29    30    1
     2    30    41    1
     3    30    31    1
     4    31    34    1
     5    31    32    1
     6    32    35    1
     7    32    33    1
     8    33    36    1
     9    33    44    1
    10    39    40    1
    11    39    42    2
    12    39    41   am
    13    41    43    1
    14    29    28    1
    15    34    37    1
    16    35    38    1
    17    29    36    1
    18    44    45    1
    19    45    46    1
    20    15     6    1
    21    15    16   ar
    22    16    21    2
    23    16    17   ar
    24    17    23    1
    25    17    18   ar
    26    18    19   ar
    27    19    20   ar
    28    15    20   ar
    29    18    22    2
    30     6     7    1
    31     6    11    1
    32     7     9    1
    33     7     8    1
    34     8    13    1
    35     9    10    1
    36     9    12    1
    37    10     5    1
    38    10    11    1
    39    12    14    1
    40     5     4    1
    41     4     1    1
    42     1     2    1
    43     1    24    1
    44     1     3    2
    45    24    25    1
    46    28    25    1
    47    25    26    1
    48    25    27    2
@<TRIPOS>MOLECULE
UD2
 46 48 0 0 0
SMALL
GASTEIGER

@<TRIPOS>ATOM
      1 P          22.1264   70.4209   -0.2879 P.3     1  UNL1        0.2189
      2 O          21.2333   70.9612    0.9376 O.3     1  UNL1       -0.4371
      3 O          23.0691   69.3921    0.2038 O.2     1  UNL1       -0.5170
      4 O          21.1658   69.7770   -1.4088 O.3     1  UNL1       -0.3112
      5 C          21.2049   70.1666   -2.7828 C.3     1  UNL1        0.1811
      6 C          18.5625   70.8019   -5.1389 C.3     1  UNL1        0.2383
      7 C          18.2039   69.4308   -4.5114 C.3     1  UNL1        0.1895
      8 O          16.7880   69.2422   -4.4729 O.3     1  UNL1       -0.3779
      9 C          18.7822   69.5663   -3.0815 C.3     1  UNL1        0.1713
     10 C          19.8293   70.6897   -3.2036 C.3     1  UNL1        0.1764
     11 O          19.8615   71.0966   -4.5809 O.3     1  UNL1       -0.3308
     12 O          17.7547   69.9376   -2.1609 O.3     1  UNL1       -0.3794
     13 H          16.5137   68.3983   -4.0892 H       1  UNL1        0.2106
     14 H          17.0384   69.2925   -2.0887 H       1  UNL1        0.2105
     15 N          18.6389   70.6973   -6.5977 N.ar    1  UNL1       -0.2551
     16 C          17.5142   70.7750   -7.3312 C.ar    1  UNL1        0.3323
     17 N          17.5547   70.6820   -8.6735 N.ar    1  UNL1       -0.2743
     18 C          18.7329   70.5101   -9.3067 C.ar    1  UNL1        0.2626
     19 C          19.9247   70.4276   -8.5471 C.ar    1  UNL1        0.0795
     20 C          19.8550   70.5283   -7.2031 C.ar    1  UNL1        0.0869
     21 O          16.4449   70.9302   -6.7736 O.2     1  UNL1       -0.2464
     22 O          18.7710   70.4261  -10.5216 O.2     1  UNL1       -0.2670
     23 H          16.7343   70.7388   -9.1871 H       1  UNL1        0.1734
     24 O          22.9536   71.6445   -0.9298 O.3     1  UNL1       -0.2703
     25 P          22.7512   73.2418   -0.9504 P.3     1  UNL1        0.2208
     26 O          21.4144   73.6234   -0.1372 O.3     1  UNL1       -0.4371
     27 O          23.9170   73.8953   -0.3162 O.2     1  UNL1       -0.5170
     28 O          22.6156   73.7459   -2.4736 O.3     1  UNL1       -0.2865
     29 C          23.6961   73.7019   -3.4072 C.3     1  UNL1        0.2611
     30 C          24.2405   75.1156   -3.6262 C.3     1  UNL1        0.1582
     31 C          23.1380   75.9898   -4.2317 C.3     1  UNL1        0.1625
     32 C          22.6493   75.3479   -5.5330 C.3     1  UNL1        0.1686
     33 C          22.1661   73.9249   -5.2405 C.3     1  UNL1        0.1760
     34 O          23.6591   77.2919   -4.5077 O.3     1  UNL1       -0.3801
     35 O          23.7216   75.3043   -6.4762 O.3     1  UNL1       -0.3794
     36 O          23.2295   73.1744   -4.6507 O.3     1  UNL1       -0.3263
     37 H          23.0133   77.9000   -4.8929 H       1  UNL1        0.2105
     38 H          23.4830   74.9082   -7.3260 H       1  UNL1        0.2105
     39 C          25.8136   76.3798   -2.2606 C.2     1  UNL1        0.2231
     40 C          26.2498   76.9616   -0.9416 C.3     1  UNL1        0.0946
     41 N          24.6643   75.6810   -2.3427 N.am    1  UNL1       -0.2994
     42 O          26.4971   76.5401   -3.2503 O.2     1  UNL1       -0.2751
     43 H          24.1180   75.5517   -1.5516 H       1  UNL1        0.1496
     44 C          21.7317   73.2556   -6.5457 C.3     1  UNL1        0.1693
     45 O          22.8719   72.6860   -7.1922 O.3     1  UNL1       -0.3794
     46 H          22.6706   72.2438   -8.0283 H       1  UNL1        0.2105
@<TRIPOS>BOND
     1    29    30    1
     2    30    41    1
     3    30    31    1
     4    31    34    1
     5    31    32    1
     6    32    35    1
     7    32    33    1
     8    33    36    1
     9    33    44    1
    10    39    40    1
    11    39    42    2
    12    39    41   am
    13    41    43    1
    14    29    28    1
    15    34    37    1
    16    35    38    1
    17    29    36    1
    18    44    45    1
    19    45    46    1
    20    15     6    1
    21    15    16   ar
    22    16    21    2
    23    16    17   ar
    24    17    23    1
    25    17    18   ar
    26    18    19   ar
    27    19    20   ar
    28    15    20   ar
    29    18    22    2
    30     6     7    1
    31     6    11    1
    32     7     9    1
    33     7     8    1
    34     8    13    1
    35     9    10    1
    36     9    12    1
    37    10     5    1
    38    10    11    1
    39    12    14    1
    40     5     4    1
    41     4     1    1
    42     1     2    1
    43     1    24    1
    44     1     3    2
    45    24    25    1
    46    28    25    1
    47    25    26    1
    48    25    27    2
@<TRIPOS>MOLECULE
UD2
 46 48 0 0 0
SMALL
GASTEIGER

@<TRIPOS>ATOM
      1 P          22.3390   71.4370   -2.7846 P.3     1  UNL1        0.2189
      2 O          23.6209   70.6294   -3.3286 O.3     1  UNL1       -0.4371
      3 O          21.5959   70.5940   -1.8223 O.2     1  UNL1       -0.5170
      4 O          22.8262   72.7859   -2.0519 O.3     1  UNL1       -0.3112
      5 C          22.1128   73.3821   -0.9669 C.3     1  UNL1        0.1811
      6 C          22.7515   73.3484    2.5725 C.3     1  UNL1        0.2383
      7 C          21.2958   72.8348    2.4343 C.3     1  UNL1        0.1895
      8 O          20.9779   71.9149    3.4805 O.3     1  UNL1       -0.3779
      9 C          21.3322   72.1193    1.0617 C.3     1  UNL1        0.1713
     10 C          22.5516   72.7343    0.3487 C.3     1  UNL1        0.1764
     11 O          23.1016   73.7311    1.2247 O.3     1  UNL1       -0.3308
     12 O          21.5115   70.7129    1.2369 O.3     1  UNL1       -0.3794
     13 H          20.0774   71.5660    3.4376 H       1  UNL1        0.2106
     14 H          20.8008   70.2836    1.7319 H       1  UNL1        0.2105
     15 N          22.8075   74.5054    3.4688 N.ar    1  UNL1       -0.2551
     16 C          22.1829   75.6457    3.1247 C.ar    1  UNL1        0.3323
     17 N          22.2179   76.7246    3.9289 N.ar    1  UNL1       -0.2743
     18 C          22.8832   76.6763    5.1009 C.ar    1  UNL1        0.2626
     19 C          23.5442   75.4820    5.4762 C.ar    1  UNL1        0.0795
     20 C          23.4891   74.4143    4.6525 C.ar    1  UNL1        0.0869
     21 O          21.5790   75.7036    2.0709 O.2     1  UNL1       -0.2464
     22 O          22.9152   77.6520    5.8300 O.2     1  UNL1       -0.2670
     23 H          21.7631   77.5393    3.6650 H       1  UNL1        0.1734
     24 O          21.3785   71.8154   -4.0206 O.3     1  UNL1       -0.2703
     25 P          21.4529   72.9092   -5.2000 P.3     1  UNL1        0.2208
     26 O          21.1936   74.3761   -4.5880 O.3     1  UNL1       -0.4371
     27 O          22.7915   72.8671   -5.8285 O.2     1  UNL1       -0.5170
     28 O          20.3296   72.5825   -6.3064 O.3     1  UNL1       -0.2865
     29 C          20.3553   71.4073   -7.1185 C.3     1  UNL1        0.2611
     30 C          20.2991   71.8051   -8.5954 C.3     1  UNL1        0.1582
     31 C          18.9785   72.5312   -8.8697 C.3     1  UNL1        0.1625
     32 C          17.8148   71.6203   -8.4692 C.3     1  UNL1        0.1686
     33 C          17.9668   71.2296   -6.9967 C.3     1  UNL1        0.1760
     34 O          18.8849   72.8415  -10.2619 O.3     1  UNL1       -0.3801
     35 O          17.8281   70.4439   -9.2799 O.3     1  UNL1       -0.3794
     36 O          19.2284   70.5867   -6.8040 O.3     1  UNL1       -0.3263
     37 H          18.0718   73.3040  -10.5075 H       1  UNL1        0.2105
     38 H          17.1167   69.8195   -9.0799 H       1  UNL1        0.2105
     39 C          21.2540   74.0315   -8.8580 C.2     1  UNL1        0.2231
     40 C          22.4067   74.9472   -9.1763 C.3     1  UNL1        0.0946
     41 N          21.4208   72.6951   -8.9054 N.am    1  UNL1       -0.2994
     42 O          20.1742   74.4969   -8.5585 O.2     1  UNL1       -0.2751
     43 H          22.2837   72.3226   -9.1457 H       1  UNL1        0.1496
     44 C          16.8405   70.2713   -6.6047 C.3     1  UNL1        0.1693
     45 O          16.7707   70.1744   -5.1806 O.3     1  UNL1       -0.3794
     46 H          16.0771   69.5820   -4.8597 H       1  UNL1        0.2105
@<TRIPOS>BOND
     1    29    30    1
     2    30    41    1
     3    30    31    1
     4    31    34    1
     5    31    32    1
     6    32    35    1
     7    32    33    1
     8    33    36    1
     9    33    44    1
    10    39    40    1
    11    39    42    2
    12    39    41   am
    13    41    43    1
    14    29    28    1
    15    34    37    1
    16    35    38    1
    17    29    36    1
    18    44    45    1
    19    45    46    1
    20    15     6    1
    21    15    16   ar
    22    16    21    2
    23    16    17   ar
    24    17    23    1
    25    17    18   ar
    26    18    19   ar
    27    19    20   ar
    28    15    20   ar
    29    18    22    2
    30     6     7    1
    31     6    11    1
    32     7     9    1
    33     7     8    1
    34     8    13    1
    35     9    10    1
    36     9    12    1
    37    10     5    1
    38    10    11    1
    39    12    14    1
    40     5     4    1
    41     4     1    1
    42     1     2    1
    43     1    24    1
    44     1     3    2
    45    24    25    1
    46    28    25    1
    47    25    26    1
    48    25    27    2
@<TRIPOS>MOLECULE
UD2
 46 48 0 0 0
SMALL
GASTEIGER

@<TRIPOS>ATOM
      1 P          22.2835   70.3976   -0.0862 P.3     1  UNL1        0.2189
      2 O          21.3193   70.8511    1.1204 O.3     1  UNL1       -0.4371
      3 O          23.2591   69.4015    0.4088 O.2     1  UNL1       -0.5170
      4 O          21.3993   69.7440   -1.2629 O.3     1  UNL1       -0.3112
      5 C          21.3541   70.2761   -2.5881 C.3     1  UNL1        0.1811
      6 C          18.6208   70.6779   -4.8913 C.3     1  UNL1        0.2383
      7 C          18.5243   69.2028   -4.4254 C.3     1  UNL1        0.1895
      8 O          17.1671   68.7556   -4.4259 O.3     1  UNL1       -0.3779
      9 C          19.0797   69.2805   -2.9822 C.3     1  UNL1        0.1713
     10 C          19.9026   70.5828   -2.9650 C.3     1  UNL1        0.1764
     11 O          19.8485   71.1406   -4.2877 O.3     1  UNL1       -0.3308
     12 O          18.0093   69.3523   -2.0388 O.3     1  UNL1       -0.3794
     13 H          17.0550   67.8382   -4.1423 H       1  UNL1        0.2106
     14 H          17.4237   68.5832   -2.0480 H       1  UNL1        0.2105
     15 N          18.7030   70.7532   -6.3516 N.ar    1  UNL1       -0.2551
     16 C          17.5746   70.7553   -7.0833 C.ar    1  UNL1        0.3323
     17 N          17.6203   70.8236   -8.4270 N.ar    1  UNL1       -0.2743
     18 C          18.8074   70.8932   -9.0631 C.ar    1  UNL1        0.2626
     19 C          20.0031   70.8929   -8.3052 C.ar    1  UNL1        0.0795
     20 C          19.9275   70.8279   -6.9593 C.ar    1  UNL1        0.0869
     21 O          16.4972   70.6933   -6.5232 O.2     1  UNL1       -0.2464
     22 O          18.8502   70.9554  -10.2791 O.2     1  UNL1       -0.2670
     23 H          16.7972   70.8228   -8.9395 H       1  UNL1        0.1734
     24 O          23.0699   71.6818   -0.6569 O.3     1  UNL1       -0.2703
     25 P          22.8563   73.2725   -0.5262 P.3     1  UNL1        0.2208
     26 O          21.3943   73.6641   -1.0767 O.3     1  UNL1       -0.4371
     27 O          22.9710   73.6708    0.8939 O.2     1  UNL1       -0.5170
     28 O          23.9786   74.0375   -1.3910 O.3     1  UNL1       -0.2865
     29 C          23.9923   75.4550   -1.5686 C.3     1  UNL1        0.2611
     30 C          24.1772   75.7826   -3.0522 C.3     1  UNL1        0.1582
     31 C          25.5318   75.2421   -3.5206 C.3     1  UNL1        0.1625
     32 C          26.6383   75.8448   -2.6508 C.3     1  UNL1        0.1686
     33 C          26.3585   75.5147   -1.1823 C.3     1  UNL1        0.1760
     34 O          25.7451   75.6075   -4.8860 O.3     1  UNL1       -0.3801
     35 O          26.6643   77.2626   -2.8256 O.3     1  UNL1       -0.3794
     36 O          25.0713   76.0181   -0.8194 O.3     1  UNL1       -0.3263
     37 H          26.5856   75.2964   -5.2493 H       1  UNL1        0.2105
     38 H          27.3429   77.7117   -2.3023 H       1  UNL1        0.2105
     39 C          23.2726   73.9173   -4.3328 C.2     1  UNL1        0.2231
     40 C          22.1705   73.2721   -5.1313 C.3     1  UNL1        0.0946
     41 N          23.1047   75.1559   -3.8290 N.am    1  UNL1       -0.2994
     42 O          24.3126   73.3219   -4.1428 O.2     1  UNL1       -0.2751
     43 H          22.2738   75.6326   -3.9816 H       1  UNL1        0.1496
     44 C          27.4273   76.1641   -0.3012 C.3     1  UNL1        0.1693
     45 O          26.8932   76.3967    1.0038 O.3     1  UNL1       -0.3794
     46 H          27.5174   76.8076    1.6174 H       1  UNL1        0.2105
@<TRIPOS>BOND
     1    29    30    1
     2    30    41    1
     3    30    31    1
     4    31    34    1
     5    31    32    1
     6    32    35    1
     7    32    33    1
     8    33    36    1
     9    33    44    1
    10    39    40    1
    11    39    42    2
    12    39    41   am
    13    41    43    1
    14    29    28    1
    15    34    37    1
    16    35    38    1
    17    29    36    1
    18    44    45    1
    19    45    46    1
    20    15     6    1
    21    15    16   ar
    22    16    21    2
    23    16    17   ar
    24    17    23    1
    25    17    18   ar
    26    18    19   ar
    27    19    20   ar
    28    15    20   ar
    29    18    22    2
    30     6     7    1
    31     6    11    1
    32     7     9    1
    33     7     8    1
    34     8    13    1
    35     9    10    1
    36     9    12    1
    37    10     5    1
    38    10    11    1
    39    12    14    1
    40     5     4    1
    41     4     1    1
    42     1     2    1
    43     1    24    1
    44     1     3    2
    45    24    25    1
    46    28    25    1
    47    25    26    1
    48    25    27    2
@<TRIPOS>MOLECULE
UD2
 46 48 0 0 0
SMALL
GASTEIGER

@<TRIPOS>ATOM
      1 P          21.5953   73.8198   -1.8240 P.3     1  UNL1        0.2189
      2 O          22.5510   73.7373   -3.1168 O.3     1  UNL1       -0.4371
      3 O          20.7357   75.0200   -1.9211 O.2     1  UNL1       -0.5170
      4 O          20.6718   72.5023   -1.7546 O.3     1  UNL1       -0.3112
      5 C          20.5684   71.5681   -2.8307 C.3     1  UNL1        0.1811
      6 C          18.1450   71.1386   -5.4535 C.3     1  UNL1        0.2383
      7 C          18.0721   69.8236   -4.6364 C.3     1  UNL1        0.1895
      8 O          16.7547   69.2715   -4.6749 O.3     1  UNL1       -0.3779
      9 C          18.4266   70.3076   -3.2090 C.3     1  UNL1        0.1713
     10 C          19.1643   71.6409   -3.4359 C.3     1  UNL1        0.1764
     11 O          19.2537   71.8444   -4.8550 O.3     1  UNL1       -0.3308
     12 O          17.2386   70.5167   -2.4437 O.3     1  UNL1       -0.3794
     13 H          16.6586   68.4475   -4.1786 H       1  UNL1        0.2106
     14 H          16.7042   69.7207   -2.3201 H       1  UNL1        0.2105
     15 N          18.4150   70.8546   -6.8647 N.ar    1  UNL1       -0.2551
     16 C          17.3901   70.6512   -7.7115 C.ar    1  UNL1        0.3323
     17 N          17.6089   70.3882   -9.0135 N.ar    1  UNL1       -0.2743
     18 C          18.8685   70.3263   -9.4911 C.ar    1  UNL1        0.2626
     19 C          19.9568   70.5395   -8.6111 C.ar    1  UNL1        0.0795
     20 C          19.7080   70.8055   -7.3116 C.ar    1  UNL1        0.0869
     21 O          16.2491   70.7041   -7.2947 O.2     1  UNL1       -0.2464
     22 O          19.0678   70.0887  -10.6694 O.2     1  UNL1       -0.2670
     23 H          16.8585   70.2428   -9.6101 H       1  UNL1        0.1734
     24 O          22.4982   73.9121   -0.4938 O.3     1  UNL1       -0.2703
     25 P          23.3528   75.0887    0.1978 P.3     1  UNL1        0.2208
     26 O          24.9190   74.8596   -0.0994 O.3     1  UNL1       -0.4371
     27 O          22.9323   76.3947   -0.3552 O.2     1  UNL1       -0.5170
     28 O          23.0999   75.0722    1.7879 O.3     1  UNL1       -0.2865
     29 C          23.7345   74.1421    2.6674 C.3     1  UNL1        0.2611
     30 C          22.7339   73.0569    3.0722 C.3     1  UNL1        0.1582
     31 C          21.5744   73.7031    3.8366 C.3     1  UNL1        0.1625
     32 C          22.1323   74.4584    5.0460 C.3     1  UNL1        0.1686
     33 C          23.1563   75.4899    4.5650 C.3     1  UNL1        0.1760
     34 O          20.6720   72.6880    4.2823 O.3     1  UNL1       -0.3801
     35 O          22.7645   73.5359    5.9352 O.3     1  UNL1       -0.3794
     36 O          24.1911   74.8272    3.8355 O.3     1  UNL1       -0.3263
     37 H          19.9115   73.0268    4.7743 H       1  UNL1        0.2105
     38 H          23.1424   73.9465    6.7255 H       1  UNL1        0.2105
     39 C          22.5197   71.1011    1.6346 C.2     1  UNL1        0.2231
     40 C          21.9909   70.4181    0.4007 C.3     1  UNL1        0.0946
     41 N          22.2194   72.3933    1.8716 N.am    1  UNL1       -0.2994
     42 O          23.2165   70.4879    2.4161 O.2     1  UNL1       -0.2751
     43 H          21.6632   72.8841    1.2466 H       1  UNL1        0.1496
     44 C          23.7624   76.2079    5.7723 C.3     1  UNL1        0.1693
     45 O          25.1817   76.2799    5.6214 O.3     1  UNL1       -0.3794
     46 H          25.6335   76.7236    6.3522 H       1  UNL1        0.2105
@<TRIPOS>BOND
     1    29    30    1
     2    30    41    1
     3    30    31    1
     4    31    34    1
     5    31    32    1
     6    32    35    1
     7    32    33    1
     8    33    36    1
     9    33    44    1
    10    39    40    1
    11    39    42    2
    12    39    41   am
    13    41    43    1
    14    29    28    1
    15    34    37    1
    16    35    38    1
    17    29    36    1
    18    44    45    1
    19    45    46    1
    20    15     6    1
    21    15    16   ar
    22    16    21    2
    23    16    17   ar
    24    17    23    1
    25    17    18   ar
    26    18    19   ar
    27    19    20   ar
    28    15    20   ar
    29    18    22    2
    30     6     7    1
    31     6    11    1
    32     7     9    1
    33     7     8    1
    34     8    13    1
    35     9    10    1
    36     9    12    1
    37    10     5    1
    38    10    11    1
    39    12    14    1
    40     5     4    1
    41     4     1    1
    42     1     2    1
    43     1    24    1
    44     1     3    2
    45    24    25    1
    46    28    25    1
    47    25    26    1
    48    25    27    2
@<TRIPOS>MOLECULE
UD2
 46 48 0 0 0
SMALL
GASTEIGER

@<TRIPOS>ATOM
      1 P          22.9399   72.1319   -3.4073 P.3     1  UNL1        0.2189
      2 O          24.0717   73.2545   -3.1833 O.3     1  UNL1       -0.4371
      3 O          23.5292   70.7896   -3.2072 O.2     1  UNL1       -0.5170
      4 O          21.7451   72.3564   -2.3510 O.3     1  UNL1       -0.3112
      5 C          21.8075   73.3233   -1.3010 C.3     1  UNL1        0.1811
      6 C          22.7351   73.2518    2.1734 C.3     1  UNL1        0.2383
      7 C          21.2897   72.6933    2.1444 C.3     1  UNL1        0.1895
      8 O          21.0876   71.7463    3.1951 O.3     1  UNL1       -0.3779
      9 C          21.2357   72.0022    0.7599 C.3     1  UNL1        0.1713
     10 C          22.3727   72.6685   -0.0381 C.3     1  UNL1        0.1764
     11 O          22.9614   73.6680    0.8091 O.3     1  UNL1       -0.3308
     12 O          21.4726   70.5997    0.8928 O.3     1  UNL1       -0.3794
     13 H          20.1979   71.3689    3.2190 H       1  UNL1        0.2106
     14 H          20.8186   70.1393    1.4358 H       1  UNL1        0.2105
     15 N          22.8282   74.3950    3.0841 N.ar    1  UNL1       -0.2551
     16 C          22.2071   75.5467    2.7736 C.ar    1  UNL1        0.3323
     17 N          22.2758   76.6135    3.5919 N.ar    1  UNL1       -0.2743
     18 C          22.9724   76.5410    4.7443 C.ar    1  UNL1        0.2626
     19 C          23.6303   75.3345    5.0842 C.ar    1  UNL1        0.0795
     20 C          23.5410   74.2796    4.2472 C.ar    1  UNL1        0.0869
     21 O          21.5752   75.6263    1.7378 O.2     1  UNL1       -0.2464
     22 O          23.0351   77.5057    5.4860 O.2     1  UNL1       -0.2670
     23 H          21.8230   77.4367    3.3522 H       1  UNL1        0.1734
     24 O          22.3596   72.2458   -4.9051 O.3     1  UNL1       -0.2703
     25 P          21.2324   73.1616   -5.6006 P.3     1  UNL1        0.2208
     26 O          20.9851   74.4785   -4.7071 O.3     1  UNL1       -0.4371
     27 O          21.6848   73.5606   -6.9514 O.2     1  UNL1       -0.5170
     28 O          19.8604   72.3271   -5.7184 O.3     1  UNL1       -0.2865
     29 C          18.6650   72.8699   -6.2818 C.3     1  UNL1        0.2611
     30 C          17.4637   72.0327   -5.8360 C.3     1  UNL1        0.1582
     31 C          17.6219   70.6049   -6.3678 C.3     1  UNL1        0.1625
     32 C          17.7632   70.6519   -7.8917 C.3     1  UNL1        0.1686
     33 C          18.9533   71.5425   -8.2583 C.3     1  UNL1        0.1760
     34 O          16.4691   69.8352   -6.0186 O.3     1  UNL1       -0.3801
     35 O          16.5699   71.1882   -8.4657 O.3     1  UNL1       -0.3794
     36 O          18.7577   72.8466   -7.7077 O.3     1  UNL1       -0.3263
     37 H          16.5018   68.9181   -6.3238 H       1  UNL1        0.2105
     38 H          16.5894   71.2479   -9.4312 H       1  UNL1        0.2105
     39 C          16.2209   72.1706   -3.7446 C.2     1  UNL1        0.2231
     40 C          16.1565   72.1431   -2.2400 C.3     1  UNL1        0.0946
     41 N          17.4019   72.0061   -4.3725 N.am    1  UNL1       -0.2994
     42 O          15.2091   72.3410   -4.3922 O.2     1  UNL1       -0.2751
     43 H          18.2113   71.8708   -3.8551 H       1  UNL1        0.1496
     44 C          19.0650   71.6428   -9.7808 C.3     1  UNL1        0.1693
     45 O          18.6701   70.4026  -10.3708 O.3     1  UNL1       -0.3794
     46 H          18.7162   70.3936  -11.3367 H       1  UNL1        0.2105
@<TRIPOS>BOND
     1    29    30    1
     2    30    41    1
     3    30    31    1
     4    31    34    1
     5    31    32    1
     6    32    35    1
     7    32    33    1
     8    33    36    1
     9    33    44    1
    10    39    40    1
    11    39    42    2
    12    39    41   am
    13    41    43    1
    14    29    28    1
    15    34    37    1
    16    35    38    1
    17    29    36    1
    18    44    45    1
    19    45    46    1
    20    15     6    1
    21    15    16   ar
    22    16    21    2
    23    16    17   ar
    24    17    23    1
    25    17    18   ar
    26    18    19   ar
    27    19    20   ar
    28    15    20   ar
    29    18    22    2
    30     6     7    1
    31     6    11    1
    32     7     9    1
    33     7     8    1
    34     8    13    1
    35     9    10    1
    36     9    12    1
    37    10     5    1
    38    10    11    1
    39    12    14    1
    40     5     4    1
    41     4     1    1
    42     1     2    1
    43     1    24    1
    44     1     3    2
    45    24    25    1
    46    28    25    1
    47    25    26    1
    48    25    27    2
@<TRIPOS>MOLECULE
UD2
 46 48 0 0 0
SMALL
GASTEIGER

@<TRIPOS>ATOM
      1 P          21.8718   70.7450   -2.6723 P.3     1  UNL1        0.2189
      2 O          23.4291   70.7759   -3.0789 O.3     1  UNL1       -0.4371
      3 O          21.6167   69.5915   -1.7817 O.2     1  UNL1       -0.5170
      4 O          21.4902   72.1093   -1.9062 O.3     1  UNL1       -0.3112
      5 C          22.4642   72.9513   -1.2868 C.3     1  UNL1        0.1811
      6 C          22.6751   73.3043    2.2863 C.3     1  UNL1        0.2383
      7 C          21.2439   72.7669    2.0316 C.3     1  UNL1        0.1895
      8 O          20.7990   71.9624    3.1255 O.3     1  UNL1       -0.3779
      9 C          21.4407   71.9080    0.7585 C.3     1  UNL1        0.1713
     10 C          22.7395   72.4526    0.1339 C.3     1  UNL1        0.1764
     11 O          23.1856   73.5425    0.9566 O.3     1  UNL1       -0.3308
     12 O          21.5911   70.5302    1.1045 O.3     1  UNL1       -0.3794
     13 H          19.9083   71.6035    3.0134 H       1  UNL1        0.2106
     14 H          20.8243   70.1509    1.5546 H       1  UNL1        0.2105
     15 N          22.6290   74.5515    3.0527 N.ar    1  UNL1       -0.2551
     16 C          22.7219   74.5133    4.3939 C.ar    1  UNL1        0.3323
     17 N          22.6822   75.6439    5.1236 N.ar    1  UNL1       -0.2743
     18 C          22.5497   76.8401    4.5151 C.ar    1  UNL1        0.2626
     19 C          22.4519   76.8951    3.1039 C.ar    1  UNL1        0.0795
     20 C          22.4988   75.7462    2.3972 C.ar    1  UNL1        0.0869
     21 O          22.8420   73.4418    4.9559 O.2     1  UNL1       -0.2464
     22 O          22.5140   77.8642    5.1743 O.2     1  UNL1       -0.2670
     23 H          22.7493   75.5984    6.0898 H       1  UNL1        0.1734
     24 O          20.9725   70.6068   -4.0010 O.3     1  UNL1       -0.2703
     25 P          19.5620   71.2292   -4.4659 P.3     1  UNL1        0.2208
     26 O          18.5253   70.0361   -4.7746 O.3     1  UNL1       -0.4371
     27 O          19.0210   72.0854   -3.3877 O.2     1  UNL1       -0.5170
     28 O          19.7770   72.1114   -5.7956 O.3     1  UNL1       -0.2865
     29 C          19.3415   73.4674   -5.9090 C.3     1  UNL1        0.2611
     30 C          18.5049   73.6310   -7.1802 C.3     1  UNL1        0.1582
     31 C          19.3784   73.3196   -8.3995 C.3     1  UNL1        0.1625
     32 C          20.6012   74.2409   -8.3867 C.3     1  UNL1        0.1686
     33 C          21.3572   74.0537   -7.0686 C.3     1  UNL1        0.1760
     34 O          18.6260   73.5410   -9.5945 O.3     1  UNL1       -0.3801
     35 O          20.1766   75.5999   -8.5055 O.3     1  UNL1       -0.3794
     36 O          20.4797   74.3290   -5.9748 O.3     1  UNL1       -0.3263
     37 H          19.1182   73.3620  -10.4075 H       1  UNL1        0.2105
     38 H          20.9014   76.2408   -8.5036 H       1  UNL1        0.2105
     39 C          17.4766   71.4844   -7.7020 C.2     1  UNL1        0.2231
     40 C          16.3104   70.5321   -7.6626 C.3     1  UNL1        0.0946
     41 N          17.3700   72.7054   -7.1417 N.am    1  UNL1       -0.2994
     42 O          18.5131   71.1526   -8.2386 O.2     1  UNL1       -0.2751
     43 H          16.5412   72.9714   -6.7135 H       1  UNL1        0.1496
     44 C          22.5471   75.0141   -7.0225 C.3     1  UNL1        0.1693
     45 O          23.0138   75.2596   -8.3508 O.3     1  UNL1       -0.3794
     46 H          23.7690   75.8616   -8.3979 H       1  UNL1        0.2105
@<TRIPOS>BOND
     1    29    30    1
     2    30    41    1
     3    30    31    1
     4    31    34    1
     5    31    32    1
     6    32    35    1
     7    32    33    1
     8    33    36    1
     9    33    44    1
    10    39    40    1
    11    39    42    2
    12    39    41   am
    13    41    43    1
    14    29    28    1
    15    34    37    1
    16    35    38    1
    17    29    36    1
    18    44    45    1
    19    45    46    1
    20    15     6    1
    21    15    16   ar
    22    16    21    2
    23    16    17   ar
    24    17    23    1
    25    17    18   ar
    26    18    19   ar
    27    19    20   ar
    28    15    20   ar
    29    18    22    2
    30     6     7    1
    31     6    11    1
    32     7     9    1
    33     7     8    1
    34     8    13    1
    35     9    10    1
    36     9    12    1
    37    10     5    1
    38    10    11    1
    39    12    14    1
    40     5     4    1
    41     4     1    1
    42     1     2    1
    43     1    24    1
    44     1     3    2
    45    24    25    1
    46    28    25    1
    47    25    26    1
    48    25    27    2
@<TRIPOS>MOLECULE
UD2
 46 48 0 0 0
SMALL
GASTEIGER

@<TRIPOS>ATOM
      1 P          19.9247   70.4494   -3.7644 P.3     1  UNL1        0.2189
      2 O          18.8869   70.9676   -2.6482 O.3     1  UNL1       -0.4371
      3 O          20.6213   69.2420   -3.2686 O.2     1  UNL1       -0.5170
      4 O          19.1247   70.0907   -5.1154 O.3     1  UNL1       -0.3112
      5 C          17.7237   70.3223   -5.2737 C.3     1  UNL1        0.1811
      6 C          18.7858   72.6988   -7.7559 C.3     1  UNL1        0.2383
      7 C          18.7280   71.3464   -8.5107 C.3     1  UNL1        0.1895
      8 O          18.3957   71.5439   -9.8863 O.3     1  UNL1       -0.3779
      9 C          17.5881   70.6076   -7.7676 C.3     1  UNL1        0.1713
     10 C          17.4979   71.3256   -6.4075 C.3     1  UNL1        0.1764
     11 O          18.5258   72.3288   -6.3843 O.3     1  UNL1       -0.3308
     12 O          16.3592   70.7371   -8.4845 O.3     1  UNL1       -0.3794
     13 H          18.3480   70.7268  -10.4009 H       1  UNL1        0.2106
     14 H          16.3784   70.3540   -9.3718 H       1  UNL1        0.2105
     15 N          20.1129   73.3050   -7.8844 N.ar    1  UNL1       -0.2551
     16 C          20.2245   74.5897   -8.2662 C.ar    1  UNL1        0.3323
     17 N          21.4314   75.1724   -8.3928 N.ar    1  UNL1       -0.2743
     18 C          22.5541   74.4713   -8.1347 C.ar    1  UNL1        0.2626
     19 C          22.4512   73.1184   -7.7308 C.ar    1  UNL1        0.0795
     20 C          21.2282   72.5609   -7.6081 C.ar    1  UNL1        0.0869
     21 O          19.2207   75.2340   -8.5021 O.2     1  UNL1       -0.2464
     22 O          23.6470   74.9977   -8.2484 O.2     1  UNL1       -0.2670
     23 H          21.4940   76.0994   -8.6703 H       1  UNL1        0.1734
     24 O          21.0042   71.6042   -4.0714 O.3     1  UNL1       -0.2703
     25 P          22.4733   71.9405   -3.5043 P.3     1  UNL1        0.2208
     26 O          23.2251   70.5699   -3.1167 O.3     1  UNL1       -0.4371
     27 O          23.2515   72.6530   -4.5411 O.2     1  UNL1       -0.5170
     28 O          22.3437   72.8704   -2.1962 O.3     1  UNL1       -0.2865
     29 C          21.2334   72.8024   -1.2996 C.3     1  UNL1        0.2611
     30 C          21.1916   74.0685   -0.4406 C.3     1  UNL1        0.1582
     31 C          22.4673   74.1444    0.4039 C.3     1  UNL1        0.1625
     32 C          22.5836   72.8731    1.2492 C.3     1  UNL1        0.1686
     33 C          22.5718   71.6527    0.3247 C.3     1  UNL1        0.1760
     34 O          22.4036   75.2850    1.2631 O.3     1  UNL1       -0.3801
     35 O          21.4803   72.7983    2.1538 O.3     1  UNL1       -0.3794
     36 O          21.3738   71.6588   -0.4542 O.3     1  UNL1       -0.3263
     37 H          23.1811   75.3958    1.8274 H       1  UNL1        0.2105
     38 H          21.4889   72.0153    2.7219 H       1  UNL1        0.2105
     39 C          22.2338   75.8656   -1.7141 C.2     1  UNL1        0.2231
     40 C          22.1487   77.0761   -2.6064 C.3     1  UNL1        0.0946
     41 N          21.1080   75.2460   -1.3084 N.am    1  UNL1       -0.2994
     42 O          23.3165   75.4478   -1.3600 O.2     1  UNL1       -0.2751
     43 H          20.2421   75.5803   -1.5904 H       1  UNL1        0.1496
     44 C          22.6275   70.3758    1.1654 C.3     1  UNL1        0.1693
     45 O          22.8759   69.2548    0.3145 O.3     1  UNL1       -0.3794
     46 H          22.9240   68.4092    0.7810 H       1  UNL1        0.2105
@<TRIPOS>BOND
     1    29    30    1
     2    30    41    1
     3    30    31    1
     4    31    34    1
     5    31    32    1
     6    32    35    1
     7    32    33    1
     8    33    36    1
     9    33    44    1
    10    39    40    1
    11    39    42    2
    12    39    41   am
    13    41    43    1
    14    29    28    1
    15    34    37    1
    16    35    38    1
    17    29    36    1
    18    44    45    1
    19    45    46    1
    20    15     6    1
    21    15    16   ar
    22    16    21    2
    23    16    17   ar
    24    17    23    1
    25    17    18   ar
    26    18    19   ar
    27    19    20   ar
    28    15    20   ar
    29    18    22    2
    30     6     7    1
    31     6    11    1
    32     7     9    1
    33     7     8    1
    34     8    13    1
    35     9    10    1
    36     9    12    1
    37    10     5    1
    38    10    11    1
    39    12    14    1
    40     5     4    1
    41     4     1    1
    42     1     2    1
    43     1    24    1
    44     1     3    2
    45    24    25    1
    46    28    25    1
    47    25    26    1
    48    25    27    2
