@<TRIPOS>MOLECULE
UD1
 46 48 0 0 0
SMALL
GASTEIGER

@<TRIPOS>ATOM
      1 P          21.6327   70.8046   -2.5418 P.3     1  UNL1        0.2189
      2 O          23.1014   70.9429   -2.6533 O.2     1  UNL1       -0.5170
      3 O          21.2173   69.2697   -2.7950 O.3     1  UNL1       -0.4371
      4 O          20.9210   71.7406   -3.6419 O.3     1  UNL1       -0.3112
      5 C          19.8582   72.4256   -2.9773 C.3     1  UNL1        0.1811
      6 C          17.8754   71.3170   -5.7642 C.3     1  UNL1        0.2383
      7 C          17.9539   70.0845   -4.8289 C.3     1  UNL1        0.1895
      8 O          16.7770   69.2832   -4.9395 O.3     1  UNL1       -0.3779
      9 C          18.0449   70.7439   -3.4282 C.3     1  UNL1        0.1713
     10 C          18.5446   72.1723   -3.7186 C.3     1  UNL1        0.1764
     11 O          18.7563   72.2733   -5.1371 O.3     1  UNL1       -0.3308
     12 O          16.7591   70.7738   -2.8048 O.3     1  UNL1       -0.3794
     13 H          16.8890   68.5361   -4.3355 H       1  UNL1        0.2106
     14 H          16.4758   69.8552   -2.7048 H       1  UNL1        0.2105
     15 N          18.3502   70.9812   -7.1071 N.ar    1  UNL1       -0.2551
     16 C          17.4671   70.6274   -8.0569 C.ar    1  UNL1        0.3323
     17 N          17.8751   70.3171   -9.3017 N.ar    1  UNL1       -0.2743
     18 C          19.1863   70.3478   -9.6144 C.ar    1  UNL1        0.2626
     19 C          20.1273   70.7126   -8.6224 C.ar    1  UNL1        0.0795
     20 C          19.6902   71.0242   -7.3834 C.ar    1  UNL1        0.0869
     21 O          16.2811   70.5952   -7.7903 O.2     1  UNL1       -0.2464
     22 O          19.5567   70.0628  -10.7383 O.2     1  UNL1       -0.2670
     23 H          17.2238   70.0688   -9.9758 H       1  UNL1        0.1734
     24 O          21.1616   71.2532   -1.0702 O.3     1  UNL1       -0.2703
     25 P          22.2867   70.7343   -0.0435 P.3     1  UNL1        0.2208
     26 O          23.4818   70.3001   -0.7998 O.2     1  UNL1       -0.5170
     27 O          21.7092   69.4935    0.8045 O.3     1  UNL1       -0.4371
     28 O          22.6905   71.9264    0.9597 O.3     1  UNL1       -0.2865
     29 C          21.4940   72.6548    1.2407 C.3     1  UNL1        0.2611
     30 C          21.6766   74.1114    0.8107 C.3     1  UNL1        0.1582
     31 C          22.8663   74.7121    1.5680 C.3     1  UNL1        0.1625
     32 C          22.6501   74.4978    3.0698 C.3     1  UNL1        0.1686
     33 C          22.3970   73.0113    3.3297 C.3     1  UNL1        0.1760
     34 O          22.9551   76.1105    1.2883 O.3     1  UNL1       -0.3801
     35 O          23.8135   74.9182    3.7849 O.3     1  UNL1       -0.3794
     36 O          21.2199   72.5946    2.6388 O.3     1  UNL1       -0.3263
     37 H          23.7149   76.4466    1.7833 H       1  UNL1        0.2105
     38 H          23.6351   74.7655    4.7237 H       1  UNL1        0.2105
     39 C          23.1969   74.2488   -1.0877 C.2     1  UNL1        0.2231
     40 C          23.4600   74.3081   -2.5708 C.3     1  UNL1        0.0946
     41 N          21.9327   74.1685   -0.6299 N.am    1  UNL1       -0.2994
     42 O          24.1235   74.2741   -0.3061 O.2     1  UNL1       -0.2751
     43 H          21.1909   74.1485   -1.2552 H       1  UNL1        0.1496
     44 C          22.2120   72.7817    4.8311 C.3     1  UNL1        0.1693
     45 O          20.8347   72.9498    5.1730 O.3     1  UNL1       -0.3794
     46 H          20.7620   72.7971    6.1248 H       1  UNL1        0.2105
@<TRIPOS>BOND
     1    29    30    1
     2    29    28    1
     3    29    36    1
     4    30    31    1
     5    30    41    1
     6    31    32    1
     7    31    34    1
     8    32    33    1
     9    32    35    1
    10    33    44    1
    11    33    36    1
    12    44    45    1
    13    39    40    1
    14    39    41   am
    15    39    42    2
    16    41    43    1
    17    28    25    1
    18    34    37    1
    19    35    38    1
    20    45    46    1
    21    15    16   ar
    22    15    20   ar
    23    15     6    1
    24    16    17   ar
    25    16    21    2
    26    17    18   ar
    27    17    23    1
    28    18    19   ar
    29    18    22    2
    30    19    20   ar
    31     6     7    1
    32     6    11    1
    33     7     8    1
    34     7     9    1
    35     8    13    1
    36     9    10    1
    37     9    12    1
    38    10    11    1
    39    10     5    1
    40    12    14    1
    41     5     4    1
    42     4     1    1
    43     1     2    2
    44     1     3    1
    45     1    24    1
    46    24    25    1
    47    25    26    2
    48    25    27    1
@<TRIPOS>MOLECULE
UD1
 46 48 0 0 0
SMALL
GASTEIGER

@<TRIPOS>ATOM
      1 P          21.7588   70.7829   -0.8178 P.3     1  UNL1        0.2189
      2 O          22.3866   70.1880   -2.0181 O.2     1  UNL1       -0.5170
      3 O          21.5041   69.6332    0.2804 O.3     1  UNL1       -0.4371
      4 O          20.3535   71.4552   -1.2252 O.3     1  UNL1       -0.3112
      5 C          20.4508   71.8137   -2.6045 C.3     1  UNL1        0.1811
      6 C          18.0713   71.2983   -5.2502 C.3     1  UNL1        0.2383
      7 C          18.0237   69.9882   -4.4247 C.3     1  UNL1        0.1895
      8 O          16.7238   69.3992   -4.4749 O.3     1  UNL1       -0.3779
      9 C          18.3478   70.4926   -2.9944 C.3     1  UNL1        0.1713
     10 C          19.0529   71.8432   -3.2245 C.3     1  UNL1        0.1764
     11 O          19.1523   72.0394   -4.6454 O.3     1  UNL1       -0.3308
     12 O          17.1456   70.6703   -2.2421 O.3     1  UNL1       -0.3794
     13 H          16.7615   68.5914   -3.9444 H       1  UNL1        0.2106
     14 H          16.7218   69.8036   -2.1841 H       1  UNL1        0.2105
     15 N          18.3622   71.0160   -6.6563 N.ar    1  UNL1       -0.2551
     16 C          17.3504   70.8535   -7.5264 C.ar    1  UNL1        0.3323
     17 N          17.5885   70.5969   -8.8263 N.ar    1  UNL1       -0.2743
     18 C          18.8548   70.4890   -9.2767 C.ar    1  UNL1        0.2626
     19 C          19.9294   70.6519   -8.3703 C.ar    1  UNL1        0.0795
     20 C          19.6621   70.9139   -7.0729 C.ar    1  UNL1        0.0869
     21 O          16.2029   70.9479   -7.1354 O.2     1  UNL1       -0.2464
     22 O          19.0712   70.2523  -10.4508 O.2     1  UNL1       -0.2670
     23 H          16.8467   70.4873   -9.4409 H       1  UNL1        0.1734
     24 O          22.7330   71.9065   -0.2036 O.3     1  UNL1       -0.2703
     25 P          21.9307   72.6093    1.0012 P.3     1  UNL1        0.2208
     26 O          21.3910   71.5707    1.9062 O.2     1  UNL1       -0.5170
     27 O          20.7171   73.4813    0.4021 O.3     1  UNL1       -0.4371
     28 O          22.9267   73.5711    1.8219 O.3     1  UNL1       -0.2865
     29 C          22.1443   74.6665    2.3006 C.3     1  UNL1        0.2611
     30 C          22.9814   75.9457    2.2488 C.3     1  UNL1        0.1582
     31 C          24.2355   75.7593    3.1103 C.3     1  UNL1        0.1625
     32 C          23.8053   75.3179    4.5132 C.3     1  UNL1        0.1686
     33 C          22.9084   74.0839    4.3942 C.3     1  UNL1        0.1760
     34 O          24.9489   76.9946    3.1911 O.3     1  UNL1       -0.3801
     35 O          24.9616   74.9970    5.2888 O.3     1  UNL1       -0.3794
     36 O          21.7391   74.4084    3.6432 O.3     1  UNL1       -0.3263
     37 H          25.7282   76.8317    3.7402 H       1  UNL1        0.2105
     38 H          24.6458   74.7240    6.1619 H       1  UNL1        0.2105
     39 C          24.5829   75.8313    0.4168 C.2     1  UNL1        0.2231
     40 C          24.9860   76.1134   -1.0081 C.3     1  UNL1        0.0946
     41 N          23.3733   76.2191    0.8646 N.am    1  UNL1       -0.2994
     42 O          25.3480   75.2555    1.1606 O.2     1  UNL1       -0.2751
     43 H          22.7609   76.6802    0.2696 H       1  UNL1        0.1496
     44 C          22.4995   73.6155    5.7922 C.3     1  UNL1        0.1693
     45 O          21.1474   73.1537    5.7638 O.3     1  UNL1       -0.3794
     46 H          20.9301   72.8689    6.6618 H       1  UNL1        0.2105
@<TRIPOS>BOND
     1    29    30    1
     2    29    28    1
     3    29    36    1
     4    30    31    1
     5    30    41    1
     6    31    32    1
     7    31    34    1
     8    32    33    1
     9    32    35    1
    10    33    44    1
    11    33    36    1
    12    44    45    1
    13    39    40    1
    14    39    41   am
    15    39    42    2
    16    41    43    1
    17    28    25    1
    18    34    37    1
    19    35    38    1
    20    45    46    1
    21    15    16   ar
    22    15    20   ar
    23    15     6    1
    24    16    17   ar
    25    16    21    2
    26    17    18   ar
    27    17    23    1
    28    18    19   ar
    29    18    22    2
    30    19    20   ar
    31     6     7    1
    32     6    11    1
    33     7     8    1
    34     7     9    1
    35     8    13    1
    36     9    10    1
    37     9    12    1
    38    10    11    1
    39    10     5    1
    40    12    14    1
    41     5     4    1
    42     4     1    1
    43     1     2    2
    44     1     3    1
    45     1    24    1
    46    24    25    1
    47    25    26    2
    48    25    27    1
@<TRIPOS>MOLECULE
UD1
 46 48 0 0 0
SMALL
GASTEIGER

@<TRIPOS>ATOM
      1 P          20.7707   70.1081   -2.5849 P.3     1  UNL1        0.2189
      2 O          20.4255   68.9384   -3.4223 O.2     1  UNL1       -0.5170
      3 O          19.8250   70.1333   -1.2820 O.3     1  UNL1       -0.4371
      4 O          20.5497   71.4587   -3.4334 O.3     1  UNL1       -0.3112
      5 C          19.4684   72.1613   -2.8189 C.3     1  UNL1        0.1811
      6 C          17.7424   71.4424   -5.8899 C.3     1  UNL1        0.2383
      7 C          17.5779   70.1563   -5.0420 C.3     1  UNL1        0.1895
      8 O          16.3479   69.4976   -5.3459 O.3     1  UNL1       -0.3779
      9 C          17.5621   70.7189   -3.5969 C.3     1  UNL1        0.1713
     10 C          18.2375   72.0980   -3.7245 C.3     1  UNL1        0.1764
     11 O          18.6322   72.2575   -5.0978 O.3     1  UNL1       -0.3308
     12 O          16.2189   70.8540   -3.1272 O.3     1  UNL1       -0.3794
     13 H          16.3072   68.7087   -4.7877 H       1  UNL1        0.2106
     14 H          15.8329   69.9680   -3.1266 H       1  UNL1        0.2105
     15 N          18.3427   71.1351   -7.1886 N.ar    1  UNL1       -0.2551
     16 C          17.5542   70.7989   -8.2243 C.ar    1  UNL1        0.3323
     17 N          18.0786   70.5151   -9.4312 N.ar    1  UNL1       -0.2743
     18 C          19.4133   70.5549   -9.6185 C.ar    1  UNL1        0.2626
     19 C          20.2554   70.9014   -8.5352 C.ar    1  UNL1        0.0795
     20 C          19.7025   71.1867   -7.3368 C.ar    1  UNL1        0.0869
     21 O          16.3485   70.7587   -8.0711 O.2     1  UNL1       -0.2464
     22 O          19.8888   70.2937  -10.7080 O.2     1  UNL1       -0.2670
     23 H          17.4946   70.2791  -10.1684 H       1  UNL1        0.1734
     24 O          22.3106   70.0066   -2.1297 O.3     1  UNL1       -0.2703
     25 P          22.3719   70.4714   -0.5903 P.3     1  UNL1        0.2208
     26 O          23.7642   70.3717   -0.1002 O.2     1  UNL1       -0.5170
     27 O          21.4222   69.5205    0.2963 O.3     1  UNL1       -0.4371
     28 O          21.8678   71.9950   -0.4680 O.3     1  UNL1       -0.2865
     29 C          23.0114   72.7846   -0.1365 C.3     1  UNL1        0.2611
     30 C          22.5692   73.9892    0.6962 C.3     1  UNL1        0.1582
     31 C          21.5587   74.8124   -0.1105 C.3     1  UNL1        0.1625
     32 C          22.1775   75.1518   -1.4706 C.3     1  UNL1        0.1686
     33 C          22.6465   73.8589   -2.1413 C.3     1  UNL1        0.1760
     34 O          21.2516   76.0171    0.5936 O.3     1  UNL1       -0.3801
     35 O          21.2006   75.7917   -2.2939 O.3     1  UNL1       -0.3794
     36 O          23.6424   73.2312   -1.3346 O.3     1  UNL1       -0.3263
     37 H          20.6143   76.5026    0.0520 H       1  UNL1        0.2105
     38 H          21.6309   75.9867   -3.1385 H       1  UNL1        0.2105
     39 C          22.6249   73.5837    3.0976 C.2     1  UNL1        0.2231
     40 C          21.9818   73.1049    4.3741 C.3     1  UNL1        0.0946
     41 N          21.9446   73.5246    1.9366 N.am    1  UNL1       -0.2994
     42 O          23.7554   74.0217    3.1156 O.2     1  UNL1       -0.2751
     43 H          21.0400   73.1740    1.9220 H       1  UNL1        0.1496
     44 C          23.2370   74.1835   -3.5150 C.3     1  UNL1        0.1693
     45 O          23.8519   73.0135   -4.0582 O.3     1  UNL1       -0.3794
     46 H          24.2104   73.2609   -4.9213 H       1  UNL1        0.2105
@<TRIPOS>BOND
     1    29    30    1
     2    29    28    1
     3    29    36    1
     4    30    31    1
     5    30    41    1
     6    31    32    1
     7    31    34    1
     8    32    33    1
     9    32    35    1
    10    33    44    1
    11    33    36    1
    12    44    45    1
    13    39    40    1
    14    39    41   am
    15    39    42    2
    16    41    43    1
    17    28    25    1
    18    34    37    1
    19    35    38    1
    20    45    46    1
    21    15    16   ar
    22    15    20   ar
    23    15     6    1
    24    16    17   ar
    25    16    21    2
    26    17    18   ar
    27    17    23    1
    28    18    19   ar
    29    18    22    2
    30    19    20   ar
    31     6     7    1
    32     6    11    1
    33     7     8    1
    34     7     9    1
    35     8    13    1
    36     9    10    1
    37     9    12    1
    38    10    11    1
    39    10     5    1
    40    12    14    1
    41     5     4    1
    42     4     1    1
    43     1     2    2
    44     1     3    1
    45     1    24    1
    46    24    25    1
    47    25    26    2
    48    25    27    1
@<TRIPOS>MOLECULE
UD1
 46 48 0 0 0
SMALL
GASTEIGER

@<TRIPOS>ATOM
      1 P          21.7333   71.0808   -1.7486 P.3     1  UNL1        0.2189
      2 O          20.4592   71.8325   -1.7693 O.2     1  UNL1       -0.5170
      3 O          21.4537   69.5633   -1.2887 O.3     1  UNL1       -0.4371
      4 O          22.7493   71.7765   -0.7111 O.3     1  UNL1       -0.3112
      5 C          22.4891   71.2027    0.5708 C.3     1  UNL1        0.1811
      6 C          22.7233   74.0214    2.7905 C.3     1  UNL1        0.2383
      7 C          22.4639   74.6456    1.3965 C.3     1  UNL1        0.1895
      8 O          21.7345   75.8679    1.5115 O.3     1  UNL1       -0.3779
      9 C          21.6075   73.5531    0.7048 C.3     1  UNL1        0.1713
     10 C          21.9185   72.2724    1.5032 C.3     1  UNL1        0.1764
     11 O          22.8904   72.6163    2.5054 O.3     1  UNL1       -0.3308
     12 O          20.2183   73.8782    0.7895 O.3     1  UNL1       -0.3794
     13 H          21.6070   76.2036    0.6134 H       1  UNL1        0.2106
     14 H          20.0988   74.7166    0.3238 H       1  UNL1        0.2105
     15 N          23.9385   74.5747    3.3893 N.ar    1  UNL1       -0.2551
     16 C          24.1476   74.4471    4.7112 C.ar    1  UNL1        0.3323
     17 N          25.2582   74.9427    5.2883 N.ar    1  UNL1       -0.2743
     18 C          26.1802   75.5875    4.5452 C.ar    1  UNL1        0.2626
     19 C          25.9699   75.7341    3.1534 C.ar    1  UNL1        0.0795
     20 C          24.8497   75.2227    2.5995 C.ar    1  UNL1        0.0869
     21 O          23.3253   73.8681    5.3947 O.2     1  UNL1       -0.2464
     22 O          27.1825   76.0402    5.0667 O.2     1  UNL1       -0.2670
     23 H          25.3950   74.8374    6.2424 H       1  UNL1        0.1734
     24 O          22.3830   71.0854   -3.2206 O.3     1  UNL1       -0.2703
     25 P          21.9088   72.4477   -3.9338 P.3     1  UNL1        0.2208
     26 O          22.6066   72.5943   -5.2302 O.2     1  UNL1       -0.5170
     27 O          22.2652   73.7014   -2.9886 O.3     1  UNL1       -0.4371
     28 O          20.3194   72.3996   -4.1824 O.3     1  UNL1       -0.2865
     29 C          20.1131   71.7019   -5.4120 C.3     1  UNL1        0.2611
     30 C          18.9286   72.3243   -6.1533 C.3     1  UNL1        0.1582
     31 C          17.6812   72.2385   -5.2665 C.3     1  UNL1        0.1625
     32 C          17.4868   70.7814   -4.8338 C.3     1  UNL1        0.1686
     33 C          18.7793   70.2763   -4.1891 C.3     1  UNL1        0.1760
     34 O          16.5389   72.6792   -6.0030 O.3     1  UNL1       -0.3801
     35 O          16.4173   70.7019   -3.8895 O.3     1  UNL1       -0.3794
     36 O          19.8438   70.3286   -5.1381 O.3     1  UNL1       -0.3263
     37 H          15.7792   72.6091   -5.4086 H       1  UNL1        0.2105
     38 H          16.3299   69.7700   -3.6437 H       1  UNL1        0.2105
     39 C          19.4120   74.1184   -7.7285 C.2     1  UNL1        0.2231
     40 C          19.7138   75.5627   -8.0374 C.3     1  UNL1        0.0946
     41 N          19.2212   73.7273   -6.4539 N.am    1  UNL1       -0.2994
     42 O          19.3417   73.3081   -8.6277 O.2     1  UNL1       -0.2751
     43 H          19.2777   74.3755   -5.7341 H       1  UNL1        0.1496
     44 C          18.5850   68.8317   -3.7239 C.3     1  UNL1        0.1693
     45 O          19.8607   68.2184   -3.5275 O.3     1  UNL1       -0.3794
     46 H          19.6935   67.3120   -3.2359 H       1  UNL1        0.2105
@<TRIPOS>BOND
     1    29    30    1
     2    29    28    1
     3    29    36    1
     4    30    31    1
     5    30    41    1
     6    31    32    1
     7    31    34    1
     8    32    33    1
     9    32    35    1
    10    33    44    1
    11    33    36    1
    12    44    45    1
    13    39    40    1
    14    39    41   am
    15    39    42    2
    16    41    43    1
    17    28    25    1
    18    34    37    1
    19    35    38    1
    20    45    46    1
    21    15    16   ar
    22    15    20   ar
    23    15     6    1
    24    16    17   ar
    25    16    21    2
    26    17    18   ar
    27    17    23    1
    28    18    19   ar
    29    18    22    2
    30    19    20   ar
    31     6     7    1
    32     6    11    1
    33     7     8    1
    34     7     9    1
    35     8    13    1
    36     9    10    1
    37     9    12    1
    38    10    11    1
    39    10     5    1
    40    12    14    1
    41     5     4    1
    42     4     1    1
    43     1     2    2
    44     1     3    1
    45     1    24    1
    46    24    25    1
    47    25    26    2
    48    25    27    1
@<TRIPOS>MOLECULE
UD1
 46 48 0 0 0
SMALL
GASTEIGER

@<TRIPOS>ATOM
      1 P          19.9967   74.0909   -3.3708 P.3     1  UNL1        0.2189
      2 O          19.0032   75.1393   -3.6906 O.2     1  UNL1       -0.5170
      3 O          19.3381   72.6395   -3.5995 O.3     1  UNL1       -0.4371
      4 O          20.4530   74.2358   -1.8334 O.3     1  UNL1       -0.3112
      5 C          20.4132   72.9261   -1.2646 C.3     1  UNL1        0.1811
      6 C          22.7910   72.4218    1.3847 C.3     1  UNL1        0.2383
      7 C          22.1807   71.0192    1.1387 C.3     1  UNL1        0.1895
      8 O          23.1306   69.9914    1.4228 O.3     1  UNL1       -0.3779
      9 C          21.8543   71.0674   -0.3767 C.3     1  UNL1        0.1713
     10 C          21.7892   72.5730   -0.6980 C.3     1  UNL1        0.1764
     11 O          22.0087   73.2846    0.5320 O.3     1  UNL1       -0.3308
     12 O          22.8884   70.4324   -1.1317 O.3     1  UNL1       -0.3794
     13 H          22.6902   69.1476    1.2510 H       1  UNL1        0.2106
     14 H          22.9188   69.5104   -0.8433 H       1  UNL1        0.2105
     15 N          22.6456   72.8127    2.7874 N.ar    1  UNL1       -0.2551
     16 C          21.5147   72.5119    3.4491 C.ar    1  UNL1        0.3323
     17 N          21.3552   72.8557    4.7408 N.ar    1  UNL1       -0.2743
     18 C          22.3308   73.5199    5.3927 C.ar    1  UNL1        0.2626
     19 C          23.5241   73.8481    4.7064 C.ar    1  UNL1        0.0795
     20 C          23.6600   73.4865    3.4125 C.ar    1  UNL1        0.0869
     21 O          20.6257   71.9131    2.8748 O.2     1  UNL1       -0.2464
     22 O          22.1857   73.8354    6.5592 O.2     1  UNL1       -0.2670
     23 H          20.5347   72.6264    5.2040 H       1  UNL1        0.1734
     24 O          21.2789   74.2564   -4.3287 O.3     1  UNL1       -0.2703
     25 P          21.4174   72.8861   -5.1609 P.3     1  UNL1        0.2208
     26 O          21.3746   71.7372   -4.2298 O.2     1  UNL1       -0.5170
     27 O          22.8172   72.8796   -5.9562 O.3     1  UNL1       -0.4371
     28 O          20.2041   72.7703   -6.2121 O.3     1  UNL1       -0.2865
     29 C          20.2754   71.4634   -6.7850 C.3     1  UNL1        0.2611
     30 C          20.2716   71.5797   -8.3103 C.3     1  UNL1        0.1582
     31 C          18.9917   72.2964   -8.7551 C.3     1  UNL1        0.1625
     32 C          17.7865   71.5656   -8.1538 C.3     1  UNL1        0.1686
     33 C          17.9765   71.4531   -6.6397 C.3     1  UNL1        0.1760
     34 O          18.9040   72.2788  -10.1811 O.3     1  UNL1       -0.3801
     35 O          16.5935   72.3004   -8.4340 O.3     1  UNL1       -0.3794
     36 O          19.1525   70.6961   -6.3563 O.3     1  UNL1       -0.3263
     37 H          18.0866   72.7392  -10.4164 H       1  UNL1        0.2105
     38 H          15.8614   71.8067   -8.0379 H       1  UNL1        0.2105
     39 C          21.3348   73.6723   -8.9619 C.2     1  UNL1        0.2231
     40 C          22.5380   74.4616   -9.4110 C.3     1  UNL1        0.0946
     41 N          21.4402   72.3469   -8.7461 N.am    1  UNL1       -0.2994
     42 O          20.2713   74.2303   -8.7954 O.2     1  UNL1       -0.2751
     43 H          22.2911   71.9001   -8.8795 H       1  UNL1        0.1496
     44 C          16.7625   70.7532   -6.0253 C.3     1  UNL1        0.1693
     45 O          15.8946   71.7277   -5.4428 O.3     1  UNL1       -0.3794
     46 H          15.1449   71.2461   -5.0678 H       1  UNL1        0.2105
@<TRIPOS>BOND
     1    29    30    1
     2    29    28    1
     3    29    36    1
     4    30    31    1
     5    30    41    1
     6    31    32    1
     7    31    34    1
     8    32    33    1
     9    32    35    1
    10    33    44    1
    11    33    36    1
    12    44    45    1
    13    39    40    1
    14    39    41   am
    15    39    42    2
    16    41    43    1
    17    28    25    1
    18    34    37    1
    19    35    38    1
    20    45    46    1
    21    15    16   ar
    22    15    20   ar
    23    15     6    1
    24    16    17   ar
    25    16    21    2
    26    17    18   ar
    27    17    23    1
    28    18    19   ar
    29    18    22    2
    30    19    20   ar
    31     6     7    1
    32     6    11    1
    33     7     8    1
    34     7     9    1
    35     8    13    1
    36     9    10    1
    37     9    12    1
    38    10    11    1
    39    10     5    1
    40    12    14    1
    41     5     4    1
    42     4     1    1
    43     1     2    2
    44     1     3    1
    45     1    24    1
    46    24    25    1
    47    25    26    2
    48    25    27    1
@<TRIPOS>MOLECULE
UD1
 46 48 0 0 0
SMALL
GASTEIGER

@<TRIPOS>ATOM
      1 P          22.0717   70.6267    0.0304 P.3     1  UNL1        0.2189
      2 O          22.0325   69.3401    0.7597 O.2     1  UNL1       -0.5170
      3 O          23.2321   70.5763   -1.0847 O.3     1  UNL1       -0.4371
      4 O          22.3761   71.8212    1.0665 O.3     1  UNL1       -0.3112
      5 C          21.5018   71.6355    2.1807 C.3     1  UNL1        0.1811
      6 C          23.6068   73.9701    3.9259 C.3     1  UNL1        0.2383
      7 C          22.2157   74.6513    3.8928 C.3     1  UNL1        0.1895
      8 O          22.0238   75.4776    5.0415 O.3     1  UNL1       -0.3779
      9 C          21.2560   73.4334    3.9205 C.3     1  UNL1        0.1713
     10 C          22.1258   72.2600    3.4296 C.3     1  UNL1        0.1764
     11 O          23.4244   72.7905    3.1142 O.3     1  UNL1       -0.3308
     12 O          20.7877   73.1955    5.2498 O.3     1  UNL1       -0.3794
     13 H          21.1438   75.8707    4.9600 H       1  UNL1        0.2106
     14 H          20.3036   73.9868    5.5211 H       1  UNL1        0.2105
     15 N          24.6269   74.8437    3.3450 N.ar    1  UNL1       -0.2551
     16 C          25.7039   75.1863    4.0731 C.ar    1  UNL1        0.3323
     17 N          26.6598   75.9852    3.5630 N.ar    1  UNL1       -0.2743
     18 C          26.5462   76.4649    2.3080 C.ar    1  UNL1        0.2626
     19 C          25.4146   76.1170    1.5326 C.ar    1  UNL1        0.0795
     20 C          24.4734   75.3097    2.0671 C.ar    1  UNL1        0.0869
     21 O          25.8207   74.7616    5.2065 O.2     1  UNL1       -0.2464
     22 O          27.4075   77.1912    1.8475 O.2     1  UNL1       -0.2670
     23 H          27.4323   76.2183    4.1007 H       1  UNL1        0.1734
     24 O          20.6521   70.8833   -0.6821 O.3     1  UNL1       -0.2703
     25 P          20.7426   72.3239   -1.3934 P.3     1  UNL1        0.2208
     26 O          22.1627   72.7082   -1.5500 O.2     1  UNL1       -0.5170
     27 O          19.9879   73.4194   -0.4864 O.3     1  UNL1       -0.4371
     28 O          20.0428   72.2539   -2.8411 O.3     1  UNL1       -0.2865
     29 C          20.9004   71.4768   -3.6788 C.3     1  UNL1        0.2611
     30 C          20.8922   72.0626   -5.0919 C.3     1  UNL1        0.1582
     31 C          19.4570   72.0536   -5.6300 C.3     1  UNL1        0.1625
     32 C          18.8976   70.6320   -5.5102 C.3     1  UNL1        0.1686
     33 C          19.0535   70.1552   -4.0647 C.3     1  UNL1        0.1760
     34 O          19.4567   72.4579   -7.0003 O.3     1  UNL1       -0.3801
     35 O          17.5145   70.6308   -5.8688 O.3     1  UNL1       -0.3794
     36 O          20.4361   70.1290   -3.7121 O.3     1  UNL1       -0.3263
     37 H          18.5365   72.4383   -7.2973 H       1  UNL1        0.2105
     38 H          17.2030   69.7190   -5.7789 H       1  UNL1        0.2105
     39 C          22.3095   73.8465   -5.9541 C.2     1  UNL1        0.2231
     40 C          22.8257   75.2623   -5.9154 C.3     1  UNL1        0.0946
     41 N          21.3936   73.4380   -5.0550 N.am    1  UNL1       -0.2994
     42 O          22.7192   73.0746   -6.7946 O.2     1  UNL1       -0.2751
     43 H          21.0657   74.0555   -4.3821 H       1  UNL1        0.1496
     44 C          18.4682   68.7482   -3.9270 C.3     1  UNL1        0.1693
     45 O          18.3581   68.4109   -2.5428 O.3     1  UNL1       -0.3794
     46 H          17.9865   67.5194   -2.5007 H       1  UNL1        0.2105
@<TRIPOS>BOND
     1    29    30    1
     2    29    28    1
     3    29    36    1
     4    30    31    1
     5    30    41    1
     6    31    32    1
     7    31    34    1
     8    32    33    1
     9    32    35    1
    10    33    44    1
    11    33    36    1
    12    44    45    1
    13    39    40    1
    14    39    41   am
    15    39    42    2
    16    41    43    1
    17    28    25    1
    18    34    37    1
    19    35    38    1
    20    45    46    1
    21    15    16   ar
    22    15    20   ar
    23    15     6    1
    24    16    17   ar
    25    16    21    2
    26    17    18   ar
    27    17    23    1
    28    18    19   ar
    29    18    22    2
    30    19    20   ar
    31     6     7    1
    32     6    11    1
    33     7     8    1
    34     7     9    1
    35     8    13    1
    36     9    10    1
    37     9    12    1
    38    10    11    1
    39    10     5    1
    40    12    14    1
    41     5     4    1
    42     4     1    1
    43     1     2    2
    44     1     3    1
    45     1    24    1
    46    24    25    1
    47    25    26    2
    48    25    27    1
@<TRIPOS>MOLECULE
UD1
 46 48 0 0 0
SMALL
GASTEIGER

@<TRIPOS>ATOM
      1 P          23.4678   74.5600   -4.0320 P.3     1  UNL1        0.2189
      2 O          24.2296   73.2925   -3.9855 O.2     1  UNL1       -0.5170
      3 O          24.0058   75.4651   -5.2501 O.3     1  UNL1       -0.4371
      4 O          23.6652   75.3552   -2.6459 O.3     1  UNL1       -0.3112
      5 C          23.8646   74.3718   -1.6293 C.3     1  UNL1        0.1811
      6 C          21.5161   73.7415    1.0192 C.3     1  UNL1        0.2383
      7 C          21.2266   75.1995    0.5825 C.3     1  UNL1        0.1895
      8 O          19.8493   75.5258    0.7716 O.3     1  UNL1       -0.3779
      9 C          21.5851   75.1648   -0.9260 C.3     1  UNL1        0.1713
     10 C          22.5110   73.9407   -1.0627 C.3     1  UNL1        0.1764
     11 O          22.6856   73.3852    0.2518 O.3     1  UNL1       -0.3308
     12 O          20.4061   74.9993   -1.7168 O.3     1  UNL1       -0.3794
     13 H          19.7362   76.4419    0.4827 H       1  UNL1        0.2106
     14 H          19.8430   75.7652   -1.5423 H       1  UNL1        0.2105
     15 N          21.7999   73.6755    2.4533 N.ar    1  UNL1       -0.2551
     16 C          21.5496   72.5414    3.1305 C.ar    1  UNL1        0.3323
     17 N          21.8045   72.4510    4.4492 N.ar    1  UNL1       -0.2743
     18 C          22.3098   73.5073    5.1176 C.ar    1  UNL1        0.2626
     19 C          22.5724   74.7093    4.4182 C.ar    1  UNL1        0.0795
     20 C          22.3124   74.7709    3.0946 C.ar    1  UNL1        0.0869
     21 O          21.0940   71.5801    2.5416 O.2     1  UNL1       -0.2464
     22 O          22.5362   73.4282    6.3109 O.2     1  UNL1       -0.2670
     23 H          21.6223   71.6236    4.9209 H       1  UNL1        0.1734
     24 O          21.9060   74.2398   -4.2491 O.3     1  UNL1       -0.2703
     25 P          21.8098   72.7147   -4.7532 P.3     1  UNL1        0.2208
     26 O          22.6086   71.8483   -3.8587 O.2     1  UNL1       -0.5170
     27 O          22.3822   72.6078   -6.2543 O.3     1  UNL1       -0.4371
     28 O          20.2730   72.2368   -4.7312 O.3     1  UNL1       -0.2865
     29 C          19.9616   71.7815   -6.0491 C.3     1  UNL1        0.2611
     30 C          19.1094   72.8350   -6.7591 C.3     1  UNL1        0.1582
     31 C          17.8282   73.0708   -5.9512 C.3     1  UNL1        0.1625
     32 C          17.1389   71.7218   -5.7205 C.3     1  UNL1        0.1686
     33 C          18.1392   70.7532   -5.0859 C.3     1  UNL1        0.1760
     34 O          16.9570   73.9394   -6.6778 O.3     1  UNL1       -0.3801
     35 O          16.0226   71.8989   -4.8464 O.3     1  UNL1       -0.3794
     36 O          19.2425   70.5528   -5.9685 O.3     1  UNL1       -0.3263
     37 H          16.1663   74.0605   -6.1344 H       1  UNL1        0.2105
     38 H          15.6192   71.0273   -4.7277 H       1  UNL1        0.2105
     39 C          19.8159   74.8112   -7.9957 C.2     1  UNL1        0.2231
     40 C          20.5916   76.0995   -8.1006 C.3     1  UNL1        0.0946
     41 N          19.8624   74.0867   -6.8612 N.am    1  UNL1       -0.2994
     42 O          19.1501   74.4264   -8.9332 O.2     1  UNL1       -0.2751
     43 H          20.3953   74.3944   -6.1109 H       1  UNL1        0.1496
     44 C          17.4511   69.4124   -4.8214 C.3     1  UNL1        0.1693
     45 O          16.4502   69.1858   -5.8158 O.3     1  UNL1       -0.3794
     46 H          16.0420   68.3333   -5.6128 H       1  UNL1        0.2105
@<TRIPOS>BOND
     1    29    30    1
     2    29    28    1
     3    29    36    1
     4    30    31    1
     5    30    41    1
     6    31    32    1
     7    31    34    1
     8    32    33    1
     9    32    35    1
    10    33    44    1
    11    33    36    1
    12    44    45    1
    13    39    40    1
    14    39    41   am
    15    39    42    2
    16    41    43    1
    17    28    25    1
    18    34    37    1
    19    35    38    1
    20    45    46    1
    21    15    16   ar
    22    15    20   ar
    23    15     6    1
    24    16    17   ar
    25    16    21    2
    26    17    18   ar
    27    17    23    1
    28    18    19   ar
    29    18    22    2
    30    19    20   ar
    31     6     7    1
    32     6    11    1
    33     7     8    1
    34     7     9    1
    35     8    13    1
    36     9    10    1
    37     9    12    1
    38    10    11    1
    39    10     5    1
    40    12    14    1
    41     5     4    1
    42     4     1    1
    43     1     2    2
    44     1     3    1
    45     1    24    1
    46    24    25    1
    47    25    26    2
    48    25    27    1
@<TRIPOS>MOLECULE
UD1
 46 48 0 0 0
SMALL
GASTEIGER

@<TRIPOS>ATOM
      1 P          20.4697   70.0969   -2.0453 P.3     1  UNL1        0.2189
      2 O          21.6275   69.5212   -2.7641 O.2     1  UNL1       -0.5170
      3 O          19.1737   69.1726   -2.2878 O.3     1  UNL1       -0.4371
      4 O          20.1799   71.5813   -2.5979 O.3     1  UNL1       -0.3112
      5 C          18.7852   71.8275   -2.4113 C.3     1  UNL1        0.1811
      6 C          18.9575   73.0757   -5.7787 C.3     1  UNL1        0.2383
      7 C          18.5464   71.5903   -5.9359 C.3     1  UNL1        0.1895
      8 O          17.7322   71.4051   -7.0944 O.3     1  UNL1       -0.3779
      9 C          17.7311   71.3393   -4.6408 C.3     1  UNL1        0.1713
     10 C          18.2018   72.4492   -3.6811 C.3     1  UNL1        0.1764
     11 O          19.2147   73.2069   -4.3645 O.3     1  UNL1       -0.3308
     12 O          16.3304   71.4547   -4.9009 O.3     1  UNL1       -0.3794
     13 H          17.5121   70.4641   -7.1347 H       1  UNL1        0.2106
     14 H          16.1102   70.7742   -5.5509 H       1  UNL1        0.2105
     15 N          20.1657   73.3648   -6.5521 N.ar    1  UNL1       -0.2551
     16 C          21.3400   72.8267   -6.1795 C.ar    1  UNL1        0.3323
     17 N          22.4665   73.0722   -6.8744 N.ar    1  UNL1       -0.2743
     18 C          22.4356   73.8749   -7.9572 C.ar    1  UNL1        0.2626
     19 C          21.2072   74.4529   -8.3571 C.ar    1  UNL1        0.0795
     20 C          20.0914   74.1856   -7.6451 C.ar    1  UNL1        0.0869
     21 O          21.3840   72.1005   -5.2051 O.2     1  UNL1       -0.2464
     22 O          23.4544   74.1014   -8.5834 O.2     1  UNL1       -0.2670
     23 H          23.3040   72.6718   -6.5942 H       1  UNL1        0.1734
     24 O          20.7948   70.1645   -0.4710 O.3     1  UNL1       -0.2703
     25 P          22.3565   70.5274   -0.3340 P.3     1  UNL1        0.2208
     26 O          22.9175   70.8058   -1.6744 O.2     1  UNL1       -0.5170
     27 O          23.1404   69.2866    0.3279 O.3     1  UNL1       -0.4371
     28 O          22.5268   71.8274    0.5996 O.3     1  UNL1       -0.2865
     29 C          21.2227   72.1749    1.0681 C.3     1  UNL1        0.2611
     30 C          20.9567   73.6520    0.7721 C.3     1  UNL1        0.1582
     31 C          22.0258   74.5028    1.4668 C.3     1  UNL1        0.1625
     32 C          22.0585   74.1313    2.9531 C.3     1  UNL1        0.1686
     33 C          22.2444   72.6182    3.0846 C.3     1  UNL1        0.1760
     34 O          21.7039   75.8874    1.3229 O.3     1  UNL1       -0.3801
     35 O          23.1455   74.8050    3.5904 O.3     1  UNL1       -0.3794
     36 O          21.1463   71.9425    2.4730 O.3     1  UNL1       -0.3263
     37 H          22.4008   76.3845    1.7731 H       1  UNL1        0.2105
     38 H          23.1296   74.5428    4.5218 H       1  UNL1        0.2105
     39 C          22.1550   74.3010   -1.2471 C.2     1  UNL1        0.2231
     40 C          22.2108   74.5356   -2.7351 C.3     1  UNL1        0.0946
     41 N          21.0115   73.8795   -0.6734 N.am    1  UNL1       -0.2994
     42 O          23.1396   74.4923   -0.5658 O.2     1  UNL1       -0.2751
     43 H          20.2234   73.7265   -1.2183 H       1  UNL1        0.1496
     44 C          22.3109   72.2406    4.5658 C.3     1  UNL1        0.1693
     45 O          21.3104   72.9622    5.2872 O.3     1  UNL1       -0.3794
     46 H          21.3867   72.6961    6.2135 H       1  UNL1        0.2105
@<TRIPOS>BOND
     1    29    30    1
     2    29    28    1
     3    29    36    1
     4    30    31    1
     5    30    41    1
     6    31    32    1
     7    31    34    1
     8    32    33    1
     9    32    35    1
    10    33    44    1
    11    33    36    1
    12    44    45    1
    13    39    40    1
    14    39    41   am
    15    39    42    2
    16    41    43    1
    17    28    25    1
    18    34    37    1
    19    35    38    1
    20    45    46    1
    21    15    16   ar
    22    15    20   ar
    23    15     6    1
    24    16    17   ar
    25    16    21    2
    26    17    18   ar
    27    17    23    1
    28    18    19   ar
    29    18    22    2
    30    19    20   ar
    31     6     7    1
    32     6    11    1
    33     7     8    1
    34     7     9    1
    35     8    13    1
    36     9    10    1
    37     9    12    1
    38    10    11    1
    39    10     5    1
    40    12    14    1
    41     5     4    1
    42     4     1    1
    43     1     2    2
    44     1     3    1
    45     1    24    1
    46    24    25    1
    47    25    26    2
    48    25    27    1
@<TRIPOS>MOLECULE
UD1
 46 48 0 0 0
SMALL
GASTEIGER

@<TRIPOS>ATOM
      1 P          18.3727   71.7889   -2.5577 P.3     1  UNL1        0.2189
      2 O          17.4990   72.6703   -1.7523 O.2     1  UNL1       -0.5170
      3 O          17.5720   70.4460   -2.9425 O.3     1  UNL1       -0.4371
      4 O          19.6820   71.4055   -1.7026 O.3     1  UNL1       -0.3112
      5 C          20.1610   72.6157   -1.1140 C.3     1  UNL1        0.1811
      6 C          22.6914   72.3957    1.4308 C.3     1  UNL1        0.2383
      7 C          22.2074   70.9368    1.2375 C.3     1  UNL1        0.1895
      8 O          23.2627   70.0098    1.4951 O.3     1  UNL1       -0.3779
      9 C          21.8109   70.9212   -0.2617 C.3     1  UNL1        0.1713
     10 C          21.5883   72.4066   -0.6056 C.3     1  UNL1        0.1764
     11 O          21.7932   73.1622    0.6004 O.3     1  UNL1       -0.3308
     12 O          22.8664   70.3706   -1.0527 O.3     1  UNL1       -0.3794
     13 H          22.8977   69.1246    1.3584 H       1  UNL1        0.2106
     14 H          22.9974   69.4621   -0.7501 H       1  UNL1        0.2105
     15 N          22.5718   72.8013    2.8317 N.ar    1  UNL1       -0.2551
     16 C          21.4259   72.5718    3.4963 C.ar    1  UNL1        0.3323
     17 N          21.2892   72.9306    4.7866 N.ar    1  UNL1       -0.2743
     18 C          22.3037   73.5385    5.4340 C.ar    1  UNL1        0.2626
     19 C          23.5135   73.7915    4.7446 C.ar    1  UNL1        0.0795
     20 C          23.6255   73.4164    3.4523 C.ar    1  UNL1        0.0869
     21 O          20.5019   72.0244    2.9261 O.2     1  UNL1       -0.2464
     22 O          22.1795   73.8676    6.5992 O.2     1  UNL1       -0.2670
     23 H          20.4572   72.7530    5.2519 H       1  UNL1        0.1734
     24 O          18.8151   72.5548   -3.9018 O.3     1  UNL1       -0.2703
     25 P          19.6601   71.5035   -4.7793 P.3     1  UNL1        0.2208
     26 O          18.7387   70.7169   -5.6285 O.2     1  UNL1       -0.5170
     27 O          20.4653   70.5109   -3.8001 O.3     1  UNL1       -0.4371
     28 O          20.7037   72.2977   -5.7124 O.3     1  UNL1       -0.2865
     29 C          19.9373   73.1833   -6.5306 C.3     1  UNL1        0.2611
     30 C          20.2954   72.9508   -7.9995 C.3     1  UNL1        0.1582
     31 C          21.7958   73.1960   -8.1946 C.3     1  UNL1        0.1625
     32 C          22.1397   74.5873   -7.6520 C.3     1  UNL1        0.1686
     33 C          21.6451   74.6953   -6.2080 C.3     1  UNL1        0.1760
     34 O          22.1152   73.1285   -9.5855 O.3     1  UNL1       -0.3801
     35 O          23.5552   74.7784   -7.6894 O.3     1  UNL1       -0.3794
     36 O          20.2279   74.5321   -6.1703 O.3     1  UNL1       -0.3263
     37 H          23.0661   73.2878   -9.6619 H       1  UNL1        0.2105
     38 H          23.7272   75.6641   -7.3392 H       1  UNL1        0.2105
     39 C          19.3357   71.3165   -9.5300 C.2     1  UNL1        0.2231
     40 C          19.0020   69.8968   -9.9111 C.3     1  UNL1        0.0946
     41 N          19.9715   71.5717   -8.3703 N.am    1  UNL1       -0.2994
     42 O          19.0312   72.2297  -10.2674 O.2     1  UNL1       -0.2751
     43 H          20.2151   70.8411   -7.7800 H       1  UNL1        0.1496
     44 C          22.0125   76.0701   -5.6459 C.3     1  UNL1        0.1693
     45 O          21.0062   77.0178   -6.0084 O.3     1  UNL1       -0.3794
     46 H          21.2757   77.8683   -5.6359 H       1  UNL1        0.2105
@<TRIPOS>BOND
     1    29    30    1
     2    29    28    1
     3    29    36    1
     4    30    31    1
     5    30    41    1
     6    31    32    1
     7    31    34    1
     8    32    33    1
     9    32    35    1
    10    33    44    1
    11    33    36    1
    12    44    45    1
    13    39    40    1
    14    39    41   am
    15    39    42    2
    16    41    43    1
    17    28    25    1
    18    34    37    1
    19    35    38    1
    20    45    46    1
    21    15    16   ar
    22    15    20   ar
    23    15     6    1
    24    16    17   ar
    25    16    21    2
    26    17    18   ar
    27    17    23    1
    28    18    19   ar
    29    18    22    2
    30    19    20   ar
    31     6     7    1
    32     6    11    1
    33     7     8    1
    34     7     9    1
    35     8    13    1
    36     9    10    1
    37     9    12    1
    38    10    11    1
    39    10     5    1
    40    12    14    1
    41     5     4    1
    42     4     1    1
    43     1     2    2
    44     1     3    1
    45     1    24    1
    46    24    25    1
    47    25    26    2
    48    25    27    1
@<TRIPOS>MOLECULE
UD1
 46 48 0 0 0
SMALL
GASTEIGER

@<TRIPOS>ATOM
      1 P          19.4717   69.7146   -3.0622 P.3     1  UNL1        0.2189
      2 O          18.4398   68.9286   -2.3507 O.2     1  UNL1       -0.5170
      3 O          20.9112   69.0240   -2.8535 O.3     1  UNL1       -0.4371
      4 O          19.5058   71.2126   -2.4727 O.3     1  UNL1       -0.3112
      5 C          20.3801   71.1932   -1.3433 C.3     1  UNL1        0.1811
      6 C          21.6353   73.7439    0.8580 C.3     1  UNL1        0.2383
      7 C          22.8805   73.2622    0.0722 C.3     1  UNL1        0.1895
      8 O          23.8239   74.3218   -0.0901 O.3     1  UNL1       -0.3779
      9 C          22.2666   72.8540   -1.2923 C.3     1  UNL1        0.1713
     10 C          20.7755   72.6249   -0.9784 C.3     1  UNL1        0.1764
     11 O          20.5958   72.8373    0.4322 O.3     1  UNL1       -0.3308
     12 O          22.4277   73.9047   -2.2478 O.3     1  UNL1       -0.3794
     13 H          24.5717   73.9580   -0.5841 H       1  UNL1        0.2106
     14 H          23.3785   74.0404   -2.3559 H       1  UNL1        0.2105
     15 N          21.8568   73.6342    2.3003 N.ar    1  UNL1       -0.2551
     16 C          21.7451   72.4374    2.9025 C.ar    1  UNL1        0.3323
     17 N          21.9472   72.3063    4.2269 N.ar    1  UNL1       -0.2743
     18 C          22.2581   73.3829    4.9767 C.ar    1  UNL1        0.2626
     19 C          22.3731   74.6499    4.3566 C.ar    1  UNL1        0.0795
     20 C          22.1703   74.7520    3.0255 C.ar    1  UNL1        0.0869
     21 O          21.4654   71.4570    2.2397 O.2     1  UNL1       -0.2464
     22 O          22.4364   73.2663    6.1750 O.2     1  UNL1       -0.2670
     23 H          21.8672   71.4346    4.6439 H       1  UNL1        0.1734
     24 O          19.1214   69.7637   -4.6318 O.3     1  UNL1       -0.2703
     25 P          17.6136   70.3120   -4.7548 P.3     1  UNL1        0.2208
     26 O          17.1286   70.7249   -3.4194 O.2     1  UNL1       -0.5170
     27 O          16.6639   69.1479   -5.3335 O.3     1  UNL1       -0.4371
     28 O          17.5802   71.5751   -5.7518 O.3     1  UNL1       -0.2865
     29 C          16.2862   71.5911   -6.3572 C.3     1  UNL1        0.2611
     30 C          16.4305   71.8959   -7.8493 C.3     1  UNL1        0.1582
     31 C          17.1241   73.2522   -8.0191 C.3     1  UNL1        0.1625
     32 C          16.3534   74.3014   -7.2108 C.3     1  UNL1        0.1686
     33 C          16.2176   73.8164   -5.7659 C.3     1  UNL1        0.1760
     34 O          17.1307   73.6171   -9.4004 O.3     1  UNL1       -0.3801
     35 O          17.0642   75.5407   -7.2356 O.3     1  UNL1       -0.3794
     36 O          15.4842   72.5926   -5.7350 O.3     1  UNL1       -0.3263
     37 H          17.5755   74.4738   -9.4610 H       1  UNL1        0.2105
     38 H          16.5458   76.1710   -6.7155 H       1  UNL1        0.2105
     39 C          18.5604   71.0218   -8.6455 C.2     1  UNL1        0.2231
     40 C          19.3867   69.9460   -9.3029 C.3     1  UNL1        0.0946
     41 N          17.2337   70.8509   -8.4874 N.am    1  UNL1       -0.2994
     42 O          19.0898   72.0420   -8.2594 O.2     1  UNL1       -0.2751
     43 H          16.8097   70.0346   -8.7965 H       1  UNL1        0.1496
     44 C          15.4774   74.8722   -4.9423 C.3     1  UNL1        0.1693
     45 O          14.3853   75.3915   -5.7038 O.3     1  UNL1       -0.3794
     46 H          13.9471   76.0518   -5.1501 H       1  UNL1        0.2105
@<TRIPOS>BOND
     1    29    30    1
     2    29    28    1
     3    29    36    1
     4    30    31    1
     5    30    41    1
     6    31    32    1
     7    31    34    1
     8    32    33    1
     9    32    35    1
    10    33    44    1
    11    33    36    1
    12    44    45    1
    13    39    40    1
    14    39    41   am
    15    39    42    2
    16    41    43    1
    17    28    25    1
    18    34    37    1
    19    35    38    1
    20    45    46    1
    21    15    16   ar
    22    15    20   ar
    23    15     6    1
    24    16    17   ar
    25    16    21    2
    26    17    18   ar
    27    17    23    1
    28    18    19   ar
    29    18    22    2
    30    19    20   ar
    31     6     7    1
    32     6    11    1
    33     7     8    1
    34     7     9    1
    35     8    13    1
    36     9    10    1
    37     9    12    1
    38    10    11    1
    39    10     5    1
    40    12    14    1
    41     5     4    1
    42     4     1    1
    43     1     2    2
    44     1     3    1
    45     1    24    1
    46    24    25    1
    47    25    26    2
    48    25    27    1
@<TRIPOS>MOLECULE
UD1
 46 48 0 0 0
SMALL
GASTEIGER

@<TRIPOS>ATOM
      1 P          21.9982   70.4525   -0.4077 P.3     1  UNL1        0.2189
      2 O          23.1458   69.6134    0.0016 O.2     1  UNL1       -0.5170
      3 O          21.1171   70.8254    0.8874 O.3     1  UNL1       -0.4371
      4 O          21.0881   69.6402   -1.4589 O.3     1  UNL1       -0.3112
      5 C          21.1895   70.3239   -2.7089 C.3     1  UNL1        0.1811
      6 C          18.5492   70.8516   -5.0917 C.3     1  UNL1        0.2383
      7 C          18.2259   69.4782   -4.4520 C.3     1  UNL1        0.1895
      8 O          16.8171   69.2464   -4.4236 O.3     1  UNL1       -0.3779
      9 C          18.7879   69.6473   -3.0164 C.3     1  UNL1        0.1713
     10 C          19.8028   70.7996   -3.1450 C.3     1  UNL1        0.1764
     11 O          19.8333   71.1929   -4.5277 O.3     1  UNL1       -0.3308
     12 O          17.7411   69.9931   -2.1068 O.3     1  UNL1       -0.3794
     13 H          16.6840   68.3794   -4.0161 H       1  UNL1        0.2106
     14 H          17.1101   69.2611   -2.1159 H       1  UNL1        0.2105
     15 N          18.6389   70.7381   -6.5479 N.ar    1  UNL1       -0.2551
     16 C          17.5149   70.7207   -7.2853 C.ar    1  UNL1        0.3323
     17 N          17.5675   70.6211   -8.6268 N.ar    1  UNL1       -0.2743
     18 C          18.7568   70.5274   -9.2551 C.ar    1  UNL1        0.2626
     19 C          19.9476   70.5385   -8.4905 C.ar    1  UNL1        0.0795
     20 C          19.8662   70.6447   -7.1469 C.ar    1  UNL1        0.0869
     21 O          16.4347   70.8044   -6.7332 O.2     1  UNL1       -0.2464
     22 O          18.8053   70.4325  -10.4676 O.2     1  UNL1       -0.2670
     23 H          16.7469   70.6148   -9.1433 H       1  UNL1        0.1734
     24 O          22.5388   71.8021   -1.0969 O.3     1  UNL1       -0.2703
     25 P          22.3034   72.9911   -0.0386 P.3     1  UNL1        0.2208
     26 O          23.1285   74.1592   -0.4175 O.2     1  UNL1       -0.5170
     27 O          22.7249   72.4920    1.4329 O.3     1  UNL1       -0.4371
     28 O          20.7493   73.4099   -0.0369 O.3     1  UNL1       -0.2865
     29 C          20.6517   74.6438   -0.7505 C.3     1  UNL1        0.2611
     30 C          20.0926   75.7221    0.1794 C.3     1  UNL1        0.1582
     31 C          18.7156   75.2807    0.6878 C.3     1  UNL1        0.1625
     32 C          17.8343   74.9388   -0.5182 C.3     1  UNL1        0.1686
     33 C          18.5626   73.9171   -1.3940 C.3     1  UNL1        0.1760
     34 O          18.1186   76.3416    1.4359 O.3     1  UNL1       -0.3801
     35 O          16.5972   74.3860   -0.0648 O.3     1  UNL1       -0.3794
     36 O          19.7860   74.4760   -1.8710 O.3     1  UNL1       -0.3263
     37 H          17.2568   76.0214    1.7359 H       1  UNL1        0.2105
     38 H          16.0746   74.1849   -0.8541 H       1  UNL1        0.2105
     39 C          20.7850   75.2387    2.4644 C.2     1  UNL1        0.2231
     40 C          21.7175   75.4304    3.6332 C.3     1  UNL1        0.0946
     41 N          20.9985   75.9076    1.3149 N.am    1  UNL1       -0.2994
     42 O          19.8418   74.4826    2.5590 O.2     1  UNL1       -0.2751
     43 H          21.7531   76.5129    1.2391 H       1  UNL1        0.1496
     44 C          17.6769   73.5443   -2.5847 C.3     1  UNL1        0.1693
     45 O          16.4495   74.2725   -2.5122 O.3     1  UNL1       -0.3794
     46 H          15.9221   74.0088   -3.2783 H       1  UNL1        0.2105
@<TRIPOS>BOND
     1    29    30    1
     2    29    28    1
     3    29    36    1
     4    30    31    1
     5    30    41    1
     6    31    32    1
     7    31    34    1
     8    32    33    1
     9    32    35    1
    10    33    44    1
    11    33    36    1
    12    44    45    1
    13    39    40    1
    14    39    41   am
    15    39    42    2
    16    41    43    1
    17    28    25    1
    18    34    37    1
    19    35    38    1
    20    45    46    1
    21    15    16   ar
    22    15    20   ar
    23    15     6    1
    24    16    17   ar
    25    16    21    2
    26    17    18   ar
    27    17    23    1
    28    18    19   ar
    29    18    22    2
    30    19    20   ar
    31     6     7    1
    32     6    11    1
    33     7     8    1
    34     7     9    1
    35     8    13    1
    36     9    10    1
    37     9    12    1
    38    10    11    1
    39    10     5    1
    40    12    14    1
    41     5     4    1
    42     4     1    1
    43     1     2    2
    44     1     3    1
    45     1    24    1
    46    24    25    1
    47    25    26    2
    48    25    27    1
@<TRIPOS>MOLECULE
UD1
 46 48 0 0 0
SMALL
GASTEIGER

@<TRIPOS>ATOM
      1 P          18.4736   74.1942   -1.4644 P.3     1  UNL1        0.2189
      2 O          18.7243   73.6356   -0.1175 O.2     1  UNL1       -0.5170
      3 O          16.9016   74.4976   -1.6355 O.3     1  UNL1       -0.4371
      4 O          18.9386   73.1311   -2.5807 O.3     1  UNL1       -0.3112
      5 C          17.7643   72.7380   -3.2926 C.3     1  UNL1        0.1811
      6 C          17.7328   73.3716   -6.8317 C.3     1  UNL1        0.2383
      7 C          16.2607   73.0363   -6.4842 C.3     1  UNL1        0.1895
      8 O          15.3606   73.7294   -7.3495 O.3     1  UNL1       -0.3779
      9 C          16.1424   73.5592   -5.0290 C.3     1  UNL1        0.1713
     10 C          17.6000   73.6181   -4.5326 C.3     1  UNL1        0.1764
     11 O          18.4356   73.1273   -5.5948 O.3     1  UNL1       -0.3308
     12 O          15.5480   74.8589   -5.0111 O.3     1  UNL1       -0.3794
     13 H          14.4657   73.4782   -7.0822 H       1  UNL1        0.2106
     14 H          14.6627   74.7663   -5.3875 H       1  UNL1        0.2105
     15 N          18.2299   72.4919   -7.8902 N.ar    1  UNL1       -0.2551
     16 C          18.3898   72.9724   -9.1355 C.ar    1  UNL1        0.3323
     17 N          18.8490   72.1872  -10.1279 N.ar    1  UNL1       -0.2743
     18 C          19.1491   70.8947   -9.8880 C.ar    1  UNL1        0.2626
     19 C          18.9797   70.3743   -8.5829 C.ar    1  UNL1        0.0795
     20 C          18.5225   71.1854   -7.6050 C.ar    1  UNL1        0.0869
     21 O          18.1236   74.1360   -9.3675 O.2     1  UNL1       -0.2464
     22 O          19.5598   70.1826  -10.7855 O.2     1  UNL1       -0.2670
     23 H          18.9628   72.5517  -11.0191 H       1  UNL1        0.1734
     24 O          19.3071   75.5589   -1.6431 O.3     1  UNL1       -0.2703
     25 P          20.7942   75.2697   -1.1008 P.3     1  UNL1        0.2208
     26 O          21.0217   76.0331    0.1460 O.2     1  UNL1       -0.5170
     27 O          21.8686   75.7237   -2.2107 O.3     1  UNL1       -0.4371
     28 O          20.9625   73.6966   -0.8050 O.3     1  UNL1       -0.2865
     29 C          22.3443   73.3852   -0.9916 C.3     1  UNL1        0.2611
     30 C          22.4723   72.2354   -1.9923 C.3     1  UNL1        0.1582
     31 C          21.7108   71.0177   -1.4567 C.3     1  UNL1        0.1625
     32 C          22.2122   70.7095   -0.0418 C.3     1  UNL1        0.1686
     33 C          22.1010   71.9740    0.8127 C.3     1  UNL1        0.1760
     34 O          21.9460   69.8938   -2.3070 O.3     1  UNL1       -0.3801
     35 O          21.4154   69.6716    0.5321 O.3     1  UNL1       -0.3794
     36 O          22.9172   73.0044    0.2574 O.3     1  UNL1       -0.3263
     37 H          21.4493   69.1525   -1.9340 H       1  UNL1        0.2105
     38 H          21.7640   69.5101    1.4203 H       1  UNL1        0.2105
     39 C          22.7163   72.8895   -4.3262 C.2     1  UNL1        0.2231
     40 C          22.1320   73.3077   -5.6513 C.3     1  UNL1        0.0946
     41 N          21.9051   72.6411   -3.2800 N.am    1  UNL1       -0.2994
     42 O          23.9171   72.7773   -4.2014 O.2     1  UNL1       -0.2751
     43 H          20.9441   72.7311   -3.3795 H       1  UNL1        0.1496
     44 C          22.5690   71.6682    2.2370 C.3     1  UNL1        0.1693
     45 O          21.4414   71.6441    3.1145 O.3     1  UNL1       -0.3794
     46 H          21.7793   71.4491    3.9990 H       1  UNL1        0.2105
@<TRIPOS>BOND
     1    29    30    1
     2    29    28    1
     3    29    36    1
     4    30    31    1
     5    30    41    1
     6    31    32    1
     7    31    34    1
     8    32    33    1
     9    32    35    1
    10    33    44    1
    11    33    36    1
    12    44    45    1
    13    39    40    1
    14    39    41   am
    15    39    42    2
    16    41    43    1
    17    28    25    1
    18    34    37    1
    19    35    38    1
    20    45    46    1
    21    15    16   ar
    22    15    20   ar
    23    15     6    1
    24    16    17   ar
    25    16    21    2
    26    17    18   ar
    27    17    23    1
    28    18    19   ar
    29    18    22    2
    30    19    20   ar
    31     6     7    1
    32     6    11    1
    33     7     8    1
    34     7     9    1
    35     8    13    1
    36     9    10    1
    37     9    12    1
    38    10    11    1
    39    10     5    1
    40    12    14    1
    41     5     4    1
    42     4     1    1
    43     1     2    2
    44     1     3    1
    45     1    24    1
    46    24    25    1
    47    25    26    2
    48    25    27    1
@<TRIPOS>MOLECULE
UD1
 46 48 0 0 0
SMALL
GASTEIGER

@<TRIPOS>ATOM
      1 P          19.4669   69.6355   -2.9094 P.3     1  UNL1        0.2189
      2 O          18.3116   68.8120   -2.4901 O.2     1  UNL1       -0.5170
      3 O          20.8322   68.8352   -2.6131 O.3     1  UNL1       -0.4371
      4 O          19.4669   71.0185   -2.0846 O.3     1  UNL1       -0.3112
      5 C          20.7186   71.0923   -1.4003 C.3     1  UNL1        0.1811
      6 C          21.7297   73.7212    0.8343 C.3     1  UNL1        0.2383
      7 C          23.0319   73.3126    0.1012 C.3     1  UNL1        0.1895
      8 O          23.9159   74.4265   -0.0296 O.3     1  UNL1       -0.3779
      9 C          22.4986   72.8637   -1.2842 C.3     1  UNL1        0.1713
     10 C          21.0125   72.5464   -1.0283 C.3     1  UNL1        0.1764
     11 O          20.7643   72.7524    0.3728 O.3     1  UNL1       -0.3308
     12 O          22.6344   73.9190   -2.2385 O.3     1  UNL1       -0.3794
     13 H          24.7032   74.1067   -0.4915 H       1  UNL1        0.2106
     14 H          23.5789   74.1113   -2.3097 H       1  UNL1        0.2105
     15 N          21.8997   73.6299    2.2849 N.ar    1  UNL1       -0.2551
     16 C          21.8643   72.4276    2.8855 C.ar    1  UNL1        0.3323
     17 N          22.0217   72.3133    4.2175 N.ar    1  UNL1       -0.2743
     18 C          22.2094   73.4120    4.9763 C.ar    1  UNL1        0.2626
     19 C          22.2428   74.6844    4.3577 C.ar    1  UNL1        0.0795
     20 C          22.0876   74.7698    3.0191 C.ar    1  UNL1        0.0869
     21 O          21.6959   71.4275    2.2146 O.2     1  UNL1       -0.2464
     22 O          22.3471   73.3102    6.1813 O.2     1  UNL1       -0.2670
     23 H          21.9981   71.4378    4.6335 H       1  UNL1        0.1734
     24 O          19.3588   69.9498   -4.4837 O.3     1  UNL1       -0.2703
     25 P          17.9474   70.6875   -4.7146 P.3     1  UNL1        0.2208
     26 O          17.6782   71.6022   -3.5833 O.2     1  UNL1       -0.5170
     27 O          16.7749   69.5880   -4.8055 O.3     1  UNL1       -0.4371
     28 O          17.9986   71.5298   -6.0851 O.3     1  UNL1       -0.2865
     29 C          19.3677   71.8693   -6.3121 C.3     1  UNL1        0.2611
     30 C          19.4553   73.3176   -6.7967 C.3     1  UNL1        0.1582
     31 C          18.6403   73.4647   -8.0866 C.3     1  UNL1        0.1625
     32 C          19.1183   72.4110   -9.0912 C.3     1  UNL1        0.1686
     33 C          19.0532   71.0305   -8.4344 C.3     1  UNL1        0.1760
     34 O          18.8350   74.7719   -8.6296 O.3     1  UNL1       -0.3801
     35 O          18.2752   72.4332  -10.2446 O.3     1  UNL1       -0.3794
     36 O          19.9154   70.9963   -7.2977 O.3     1  UNL1       -0.3263
     37 H          18.3055   74.8206   -9.4374 H       1  UNL1        0.2105
     38 H          18.6104   71.7559  -10.8491 H       1  UNL1        0.2105
     39 C          17.6191   74.5774   -5.8090 C.2     1  UNL1        0.2231
     40 C          17.0632   75.4977   -4.7525 C.3     1  UNL1        0.0946
     41 N          18.9147   74.2112   -5.7702 N.am    1  UNL1       -0.2994
     42 O          16.9000   74.1670   -6.6948 O.2     1  UNL1       -0.2751
     43 H          19.4904   74.5397   -5.0616 H       1  UNL1        0.1496
     44 C          19.4979   69.9669   -9.4404 C.3     1  UNL1        0.1693
     45 O          19.0215   70.3134  -10.7424 O.3     1  UNL1       -0.3794
     46 H          19.3224   69.6194  -11.3443 H       1  UNL1        0.2105
@<TRIPOS>BOND
     1    29    30    1
     2    29    28    1
     3    29    36    1
     4    30    31    1
     5    30    41    1
     6    31    32    1
     7    31    34    1
     8    32    33    1
     9    32    35    1
    10    33    44    1
    11    33    36    1
    12    44    45    1
    13    39    40    1
    14    39    41   am
    15    39    42    2
    16    41    43    1
    17    28    25    1
    18    34    37    1
    19    35    38    1
    20    45    46    1
    21    15    16   ar
    22    15    20   ar
    23    15     6    1
    24    16    17   ar
    25    16    21    2
    26    17    18   ar
    27    17    23    1
    28    18    19   ar
    29    18    22    2
    30    19    20   ar
    31     6     7    1
    32     6    11    1
    33     7     8    1
    34     7     9    1
    35     8    13    1
    36     9    10    1
    37     9    12    1
    38    10    11    1
    39    10     5    1
    40    12    14    1
    41     5     4    1
    42     4     1    1
    43     1     2    2
    44     1     3    1
    45     1    24    1
    46    24    25    1
    47    25    26    2
    48    25    27    1
@<TRIPOS>MOLECULE
UD1
 46 48 0 0 0
SMALL
GASTEIGER

@<TRIPOS>ATOM
      1 P          20.9001   70.3715   -1.4832 P.3     1  UNL1        0.2189
      2 O          22.1521   70.4154   -2.2702 O.2     1  UNL1       -0.5170
      3 O          20.3115   71.8621   -1.3276 O.3     1  UNL1       -0.4371
      4 O          21.2048   69.7610   -0.0247 O.3     1  UNL1       -0.3112
      5 C          22.1785   70.6103    0.5843 C.3     1  UNL1        0.1811
      6 C          21.4001   73.5682    2.4743 C.3     1  UNL1        0.2383
      7 C          22.7595   73.8839    1.8017 C.3     1  UNL1        0.1895
      8 O          22.8854   75.2810    1.5345 O.3     1  UNL1       -0.3779
      9 C          22.6657   73.0744    0.4821 C.3     1  UNL1        0.1713
     10 C          21.5903   72.0096    0.7718 C.3     1  UNL1        0.1764
     11 O          21.1691   72.1842    2.1354 O.3     1  UNL1       -0.3308
     12 O          22.2630   73.9211   -0.5967 O.3     1  UNL1       -0.3794
     13 H          23.7490   75.4100    1.1185 H       1  UNL1        0.2106
     14 H          22.9451   74.5995   -0.6889 H       1  UNL1        0.2105
     15 N          21.4869   73.7367    3.9253 N.ar    1  UNL1       -0.2551
     16 C          22.6622   73.5449    4.5492 C.ar    1  UNL1        0.3323
     17 N          22.7722   73.6968    5.8822 N.ar    1  UNL1       -0.2743
     18 C          21.6952   74.0372    6.6185 C.ar    1  UNL1        0.2626
     19 C          20.4504   74.2363    5.9753 C.ar    1  UNL1        0.0795
     20 C          20.3694   74.0826    4.6362 C.ar    1  UNL1        0.0869
     21 O          23.6426   73.2377    3.8988 O.2     1  UNL1       -0.2464
     22 O          21.7924   74.1701    7.8244 O.2     1  UNL1       -0.2670
     23 H          23.6289   73.5591    6.3151 H       1  UNL1        0.1734
     24 O          19.8236   69.4445   -2.2386 O.3     1  UNL1       -0.2703
     25 P          18.9240   70.4221   -3.1465 P.3     1  UNL1        0.2208
     26 O          18.4093   71.5323   -2.3151 O.2     1  UNL1       -0.5170
     27 O          17.6870   69.5960   -3.7627 O.3     1  UNL1       -0.4371
     28 O          19.8187   71.0187   -4.3440 O.3     1  UNL1       -0.2865
     29 C          19.5456   72.4196   -4.4073 C.3     1  UNL1        0.2611
     30 C          19.1363   72.7905   -5.8338 C.3     1  UNL1        0.1582
     31 C          20.2710   72.4165   -6.7940 C.3     1  UNL1        0.1625
     32 C          21.5672   73.0661   -6.2978 C.3     1  UNL1        0.1686
     33 C          21.7947   72.6718   -4.8370 C.3     1  UNL1        0.1760
     34 O          19.9646   72.8926   -8.1059 O.3     1  UNL1       -0.3801
     35 O          22.6641   72.6124   -7.0931 O.3     1  UNL1       -0.3794
     36 O          20.7141   73.1474   -4.0353 O.3     1  UNL1       -0.3263
     37 H          20.7027   72.6360   -8.6757 H       1  UNL1        0.2105
     38 H          23.4580   73.0441   -6.7470 H       1  UNL1        0.2105
     39 C          18.0109   70.9137   -6.9040 C.2     1  UNL1        0.2231
     40 C          16.7604   70.1615   -7.2821 C.3     1  UNL1        0.0946
     41 N          17.9219   72.0591   -6.2008 N.am    1  UNL1       -0.2994
     42 O          19.0974   70.4882   -7.2335 O.2     1  UNL1       -0.2751
     43 H          17.0525   72.4001   -5.9373 H       1  UNL1        0.1496
     44 C          23.1040   73.2892   -4.3413 C.3     1  UNL1        0.1693
     45 O          23.3417   74.5189   -5.0294 O.3     1  UNL1       -0.3794
     46 H          24.1739   74.8738   -4.6887 H       1  UNL1        0.2105
@<TRIPOS>BOND
     1    29    30    1
     2    29    28    1
     3    29    36    1
     4    30    31    1
     5    30    41    1
     6    31    32    1
     7    31    34    1
     8    32    33    1
     9    32    35    1
    10    33    44    1
    11    33    36    1
    12    44    45    1
    13    39    40    1
    14    39    41   am
    15    39    42    2
    16    41    43    1
    17    28    25    1
    18    34    37    1
    19    35    38    1
    20    45    46    1
    21    15    16   ar
    22    15    20   ar
    23    15     6    1
    24    16    17   ar
    25    16    21    2
    26    17    18   ar
    27    17    23    1
    28    18    19   ar
    29    18    22    2
    30    19    20   ar
    31     6     7    1
    32     6    11    1
    33     7     8    1
    34     7     9    1
    35     8    13    1
    36     9    10    1
    37     9    12    1
    38    10    11    1
    39    10     5    1
    40    12    14    1
    41     5     4    1
    42     4     1    1
    43     1     2    2
    44     1     3    1
    45     1    24    1
    46    24    25    1
    47    25    26    2
    48    25    27    1
@<TRIPOS>MOLECULE
UD1
 46 48 0 0 0
SMALL
GASTEIGER

@<TRIPOS>ATOM
      1 P          22.3795   72.8365   -4.7284 P.3     1  UNL1        0.2189
      2 O          21.7258   74.1426   -4.4923 O.2     1  UNL1       -0.5170
      3 O          23.7790   72.7854   -3.9338 O.3     1  UNL1       -0.4371
      4 O          22.6513   72.6502   -6.3045 O.3     1  UNL1       -0.3112
      5 C          21.5575   73.2635   -6.9885 C.3     1  UNL1        0.1811
      6 C          18.2758   72.1957   -7.9973 C.3     1  UNL1        0.2383
      7 C          19.1380   72.0625   -9.2776 C.3     1  UNL1        0.1895
      8 O          18.6625   71.0009  -10.1059 O.3     1  UNL1       -0.3779
      9 C          20.5357   71.7265   -8.6954 C.3     1  UNL1        0.1713
     10 C          20.4639   72.2240   -7.2387 C.3     1  UNL1        0.1764
     11 O          19.1695   72.8214   -7.0521 O.3     1  UNL1       -0.3308
     12 O          20.7701   70.3173   -8.7387 O.3     1  UNL1       -0.3794
     13 H          19.2388   70.9715  -10.8821 H       1  UNL1        0.2106
     14 H          20.7440   70.0583   -9.6694 H       1  UNL1        0.2105
     15 N          17.1086   73.0434   -8.2431 N.ar    1  UNL1       -0.2551
     16 C          16.0048   72.8919   -7.4908 C.ar    1  UNL1        0.3323
     17 N          14.9179   73.6603   -7.6920 N.ar    1  UNL1       -0.2743
     18 C          14.9167   74.5943   -8.6644 C.ar    1  UNL1        0.2626
     19 C          16.0699   74.7604   -9.4678 C.ar    1  UNL1        0.0795
     20 C          17.1481   73.9798   -9.2409 C.ar    1  UNL1        0.0869
     21 O          15.9906   72.0538   -6.6098 O.2     1  UNL1       -0.2464
     22 O          13.9329   75.2864   -8.8504 O.2     1  UNL1       -0.2670
     23 H          14.1321   73.5406   -7.1368 H       1  UNL1        0.1734
     24 O          21.4211   71.6544   -4.2059 O.3     1  UNL1       -0.2703
     25 P          22.1506   70.9927   -2.9334 P.3     1  UNL1        0.2208
     26 O          23.5786   70.7656   -3.2465 O.2     1  UNL1       -0.5170
     27 O          21.4487   69.5868   -2.5826 O.3     1  UNL1       -0.4371
     28 O          22.0291   71.9816   -1.6693 O.3     1  UNL1       -0.2865
     29 C          20.7859   71.6866   -1.0302 C.3     1  UNL1        0.2611
     30 C          19.9273   72.9519   -0.9873 C.3     1  UNL1        0.1582
     31 C          20.6828   74.0447   -0.2228 C.3     1  UNL1        0.1625
     32 C          21.0954   73.4901    1.1448 C.3     1  UNL1        0.1686
     33 C          21.8687   72.1856    0.9408 C.3     1  UNL1        0.1760
     34 O          19.8335   75.1800   -0.0464 O.3     1  UNL1       -0.3801
     35 O          21.9262   74.4400    1.8148 O.3     1  UNL1       -0.3794
     36 O          21.0327   71.2253    0.2963 O.3     1  UNL1       -0.3263
     37 H          20.3477   75.8410    0.4374 H       1  UNL1        0.2105
     38 H          22.1631   74.0513    2.6688 H       1  UNL1        0.2105
     39 C          18.4220   73.8263   -2.6914 C.2     1  UNL1        0.2231
     40 C          18.1433   74.2936   -4.0971 C.3     1  UNL1        0.0946
     41 N          19.6562   73.4064   -2.3527 N.am    1  UNL1       -0.2994
     42 O          17.5347   73.8276   -1.8649 O.2     1  UNL1       -0.2751
     43 H          20.3663   73.4051   -3.0140 H       1  UNL1        0.1496
     44 C          22.3137   71.6402    2.2994 C.3     1  UNL1        0.1693
     45 O          21.2718   71.8385    3.2572 O.3     1  UNL1       -0.3794
     46 H          21.5922   71.4823    4.0969 H       1  UNL1        0.2105
@<TRIPOS>BOND
     1    29    30    1
     2    29    28    1
     3    29    36    1
     4    30    31    1
     5    30    41    1
     6    31    32    1
     7    31    34    1
     8    32    33    1
     9    32    35    1
    10    33    44    1
    11    33    36    1
    12    44    45    1
    13    39    40    1
    14    39    41   am
    15    39    42    2
    16    41    43    1
    17    28    25    1
    18    34    37    1
    19    35    38    1
    20    45    46    1
    21    15    16   ar
    22    15    20   ar
    23    15     6    1
    24    16    17   ar
    25    16    21    2
    26    17    18   ar
    27    17    23    1
    28    18    19   ar
    29    18    22    2
    30    19    20   ar
    31     6     7    1
    32     6    11    1
    33     7     8    1
    34     7     9    1
    35     8    13    1
    36     9    10    1
    37     9    12    1
    38    10    11    1
    39    10     5    1
    40    12    14    1
    41     5     4    1
    42     4     1    1
    43     1     2    2
    44     1     3    1
    45     1    24    1
    46    24    25    1
    47    25    26    2
    48    25    27    1
@<TRIPOS>MOLECULE
UD1
 46 48 0 0 0
SMALL
GASTEIGER

@<TRIPOS>ATOM
      1 P          22.8809   72.2437   -3.3511 P.3     1  UNL1        0.2189
      2 O          23.3456   70.9376   -2.8344 O.2     1  UNL1       -0.5170
      3 O          24.0009   72.8639   -4.3276 O.3     1  UNL1       -0.4371
      4 O          22.6288   73.2488   -2.1186 O.3     1  UNL1       -0.3112
      5 C          21.7199   72.5957   -1.2311 C.3     1  UNL1        0.1811
      6 C          22.6947   73.2657    2.1642 C.3     1  UNL1        0.2383
      7 C          21.4020   72.4213    2.2909 C.3     1  UNL1        0.1895
      8 O          21.4218   71.6318    3.4806 O.3     1  UNL1       -0.3779
      9 C          21.4751   71.5226    1.0291 C.3     1  UNL1        0.1713
     10 C          22.4304   72.2788    0.0857 C.3     1  UNL1        0.1764
     11 O          22.8070   73.5002    0.7443 O.3     1  UNL1       -0.3308
     12 O          22.0031   70.2366    1.3606 O.3     1  UNL1       -0.3794
     13 H          20.5933   71.1331    3.4997 H       1  UNL1        0.2106
     14 H          21.3935   69.8400    1.9972 H       1  UNL1        0.2105
     15 N          22.5617   74.5309    2.8873 N.ar    1  UNL1       -0.2551
     16 C          23.5584   74.9497    3.6864 C.ar    1  UNL1        0.3323
     17 N          23.4649   76.1111    4.3605 N.ar    1  UNL1       -0.2743
     18 C          22.3581   76.8732    4.2508 C.ar    1  UNL1        0.2626
     19 C          21.2987   76.4414    3.4177 C.ar    1  UNL1        0.0795
     20 C          21.4210   75.2748    2.7488 C.ar    1  UNL1        0.0869
     21 O          24.5631   74.2734    3.7956 O.2     1  UNL1       -0.2464
     22 O          22.2705   77.9212    4.8636 O.2     1  UNL1       -0.2670
     23 H          24.1955   76.4001    4.9288 H       1  UNL1        0.1734
     24 O          21.5090   72.0407   -4.1670 O.3     1  UNL1       -0.2703
     25 P          21.5403   73.0802   -5.3949 P.3     1  UNL1        0.2208
     26 O          22.7424   72.8319   -6.2207 O.2     1  UNL1       -0.5170
     27 O          21.5837   74.5850   -4.8241 O.3     1  UNL1       -0.4371
     28 O          20.2209   72.8876   -6.2964 O.3     1  UNL1       -0.2865
     29 C          20.2600   71.5546   -6.8088 C.3     1  UNL1        0.2611
     30 C          20.2287   71.6000   -8.3375 C.3     1  UNL1        0.1582
     31 C          18.9524   72.3171   -8.7917 C.3     1  UNL1        0.1625
     32 C          17.7472   71.6357   -8.1348 C.3     1  UNL1        0.1686
     33 C          17.9643   71.5904   -6.6209 C.3     1  UNL1        0.1760
     34 O          18.8370   72.2348  -10.2134 O.3     1  UNL1       -0.3801
     35 O          16.5612   72.3770   -8.4270 O.3     1  UNL1       -0.3794
     36 O          19.1332   70.8274   -6.3241 O.3     1  UNL1       -0.3263
     37 H          18.0229   72.6977  -10.4549 H       1  UNL1        0.2105
     38 H          15.8289   71.9149   -7.9949 H       1  UNL1        0.2105
     39 C          21.3262   73.6510   -9.0609 C.2     1  UNL1        0.2231
     40 C          22.5331   74.3978   -9.5685 C.3     1  UNL1        0.0946
     41 N          21.4011   72.3261   -8.8301 N.am    1  UNL1       -0.2994
     42 O          20.2869   74.2427   -8.8608 O.2     1  UNL1       -0.2751
     43 H          22.2326   71.8522   -8.9904 H       1  UNL1        0.1496
     44 C          16.7511   70.9407   -5.9521 C.3     1  UNL1        0.1693
     45 O          16.1804   69.9738   -6.8361 O.3     1  UNL1       -0.3794
     46 H          15.4209   69.5894   -6.3777 H       1  UNL1        0.2105
@<TRIPOS>BOND
     1    29    30    1
     2    29    28    1
     3    29    36    1
     4    30    31    1
     5    30    41    1
     6    31    32    1
     7    31    34    1
     8    32    33    1
     9    32    35    1
    10    33    44    1
    11    33    36    1
    12    44    45    1
    13    39    40    1
    14    39    41   am
    15    39    42    2
    16    41    43    1
    17    28    25    1
    18    34    37    1
    19    35    38    1
    20    45    46    1
    21    15    16   ar
    22    15    20   ar
    23    15     6    1
    24    16    17   ar
    25    16    21    2
    26    17    18   ar
    27    17    23    1
    28    18    19   ar
    29    18    22    2
    30    19    20   ar
    31     6     7    1
    32     6    11    1
    33     7     8    1
    34     7     9    1
    35     8    13    1
    36     9    10    1
    37     9    12    1
    38    10    11    1
    39    10     5    1
    40    12    14    1
    41     5     4    1
    42     4     1    1
    43     1     2    2
    44     1     3    1
    45     1    24    1
    46    24    25    1
    47    25    26    2
    48    25    27    1
@<TRIPOS>MOLECULE
UD1
 46 48 0 0 0
SMALL
GASTEIGER

@<TRIPOS>ATOM
      1 P          21.9143   70.8961   -2.9765 P.3     1  UNL1        0.2189
      2 O          21.2984   69.5532   -2.8992 O.2     1  UNL1       -0.5170
      3 O          23.5171   70.7495   -3.0232 O.3     1  UNL1       -0.4371
      4 O          21.4925   71.7547   -1.6812 O.3     1  UNL1       -0.3112
      5 C          22.6439   72.5030   -1.2877 C.3     1  UNL1        0.1811
      6 C          22.5131   73.4068    2.1898 C.3     1  UNL1        0.2383
      7 C          21.2462   72.5438    1.9651 C.3     1  UNL1        0.1895
      8 O          20.8959   71.8314    3.1521 O.3     1  UNL1       -0.3779
      9 C          21.7094   71.5693    0.8512 C.3     1  UNL1        0.1713
     10 C          22.9098   72.2853    0.2026 C.3     1  UNL1        0.1764
     11 O          23.0612   73.5537    0.8626 O.3     1  UNL1       -0.3308
     12 O          22.1098   70.3186    1.4153 O.3     1  UNL1       -0.3794
     13 H          20.1032   71.3169    2.9464 H       1  UNL1        0.2106
     14 H          21.3329   69.9496    1.8562 H       1  UNL1        0.2105
     15 N          22.1601   74.7118    2.7499 N.ar    1  UNL1       -0.2551
     16 C          22.4821   74.9997    4.0229 C.ar    1  UNL1        0.3323
     17 N          22.1734   76.1935    4.5630 N.ar    1  UNL1       -0.2743
     18 C          21.5234   77.1220    3.8327 C.ar    1  UNL1        0.2626
     19 C          21.1730   76.8298    2.4930 C.ar    1  UNL1        0.0795
     20 C          21.4996   75.6265    1.9747 C.ar    1  UNL1        0.0869
     21 O          23.0685   74.1727    4.6943 O.2     1  UNL1       -0.2464
     22 O          21.2394   78.1999    4.3215 O.2     1  UNL1       -0.2670
     23 H          22.4176   76.3860    5.4814 H       1  UNL1        0.1734
     24 O          21.4040   71.6449   -4.3060 O.3     1  UNL1       -0.2703
     25 P          19.8575   71.2449   -4.5002 P.3     1  UNL1        0.2208
     26 O          19.0661   71.7699   -3.3658 O.2     1  UNL1       -0.5170
     27 O          19.7197   69.6417   -4.5534 O.3     1  UNL1       -0.4371
     28 O          19.3075   71.8752   -5.8752 O.3     1  UNL1       -0.2865
     29 C          20.4016   71.8843   -6.7939 C.3     1  UNL1        0.2611
     30 C          20.5696   73.2934   -7.3652 C.3     1  UNL1        0.1582
     31 C          19.2711   73.7081   -8.0662 C.3     1  UNL1        0.1625
     32 C          18.9004   72.6295   -9.0896 C.3     1  UNL1        0.1686
     33 C          18.8553   71.2708   -8.3873 C.3     1  UNL1        0.1760
     34 O          19.4641   74.9578   -8.7313 O.3     1  UNL1       -0.3801
     35 O          17.6190   72.9224   -9.6497 O.3     1  UNL1       -0.3794
     36 O          20.1411   70.9627   -7.8503 O.3     1  UNL1       -0.3263
     37 H          18.6248   75.1802   -9.1572 H       1  UNL1        0.2105
     38 H          17.4248   72.2199  -10.2863 H       1  UNL1        0.2105
     39 C          22.0576   74.8485   -6.2242 C.2     1  UNL1        0.2231
     40 C          22.3580   75.8131   -5.1054 C.3     1  UNL1        0.0946
     41 N          20.8618   74.2309   -6.2789 N.am    1  UNL1       -0.2994
     42 O          22.8927   74.6277   -7.0750 O.2     1  UNL1       -0.2751
     43 H          20.1934   74.4072   -5.5980 H       1  UNL1        0.1496
     44 C          18.4541   70.1908   -9.3942 C.3     1  UNL1        0.1693
     45 O          19.0498   70.4755  -10.6615 O.3     1  UNL1       -0.3794
     46 H          18.7722   69.7733  -11.2653 H       1  UNL1        0.2105
@<TRIPOS>BOND
     1    29    30    1
     2    29    28    1
     3    29    36    1
     4    30    31    1
     5    30    41    1
     6    31    32    1
     7    31    34    1
     8    32    33    1
     9    32    35    1
    10    33    44    1
    11    33    36    1
    12    44    45    1
    13    39    40    1
    14    39    41   am
    15    39    42    2
    16    41    43    1
    17    28    25    1
    18    34    37    1
    19    35    38    1
    20    45    46    1
    21    15    16   ar
    22    15    20   ar
    23    15     6    1
    24    16    17   ar
    25    16    21    2
    26    17    18   ar
    27    17    23    1
    28    18    19   ar
    29    18    22    2
    30    19    20   ar
    31     6     7    1
    32     6    11    1
    33     7     8    1
    34     7     9    1
    35     8    13    1
    36     9    10    1
    37     9    12    1
    38    10    11    1
    39    10     5    1
    40    12    14    1
    41     5     4    1
    42     4     1    1
    43     1     2    2
    44     1     3    1
    45     1    24    1
    46    24    25    1
    47    25    26    2
    48    25    27    1
@<TRIPOS>MOLECULE
UD1
 46 48 0 0 0
SMALL
GASTEIGER

@<TRIPOS>ATOM
      1 P          22.7216   73.5245   -4.5232 P.3     1  UNL1        0.2189
      2 O          23.8930   72.6962   -4.1621 O.2     1  UNL1       -0.5170
      3 O          23.1110   74.5028   -5.7414 O.3     1  UNL1       -0.4371
      4 O          22.2748   74.4048   -3.2511 O.3     1  UNL1       -0.3112
      5 C          21.4006   73.5890   -2.4697 C.3     1  UNL1        0.1811
      6 C          22.1508   72.3476    0.8201 C.3     1  UNL1        0.2383
      7 C          21.2822   71.2385    0.1755 C.3     1  UNL1        0.1895
      8 O          21.6383   69.9515    0.6815 O.3     1  UNL1       -0.3779
      9 C          21.6534   71.3651   -1.3250 C.3     1  UNL1        0.1713
     10 C          22.2186   72.7931   -1.4516 C.3     1  UNL1        0.1764
     11 O          22.1212   73.4100   -0.1566 O.3     1  UNL1       -0.3308
     12 O          22.6418   70.3956   -1.6795 O.3     1  UNL1       -0.3794
     13 H          21.0635   69.3091    0.2429 H       1  UNL1        0.2106
     14 H          22.2494   69.5264   -1.5224 H       1  UNL1        0.2105
     15 N          21.5678   72.7939    2.0860 N.ar    1  UNL1       -0.2551
     16 C          21.9526   72.2159    3.2372 C.ar    1  UNL1        0.3323
     17 N          21.4361   72.6088    4.4166 N.ar    1  UNL1       -0.2743
     18 C          20.5113   73.5891    4.4606 C.ar    1  UNL1        0.2626
     19 C          20.0929   74.2020    3.2556 C.ar    1  UNL1        0.0795
     20 C          20.6312   73.7921    2.0871 C.ar    1  UNL1        0.0869
     21 O          22.7857   71.3305    3.2139 O.2     1  UNL1       -0.2464
     22 O          20.0402   73.9419    5.5259 O.2     1  UNL1       -0.2670
     23 H          21.7286   72.1841    5.2377 H       1  UNL1        0.1734
     24 O          21.5057   72.5694   -4.9684 O.3     1  UNL1       -0.2703
     25 P          21.0270   73.0722   -6.4201 P.3     1  UNL1        0.2208
     26 O          22.0726   72.7606   -7.4194 O.2     1  UNL1       -0.5170
     27 O          20.7782   74.6625   -6.3829 O.3     1  UNL1       -0.4371
     28 O          19.6594   72.3259   -6.8239 O.3     1  UNL1       -0.2865
     29 C          18.6999   72.6439   -5.8143 C.3     1  UNL1        0.2611
     30 C          18.0235   71.3575   -5.3372 C.3     1  UNL1        0.1582
     31 C          17.3467   70.6746   -6.5310 C.3     1  UNL1        0.1625
     32 C          16.4182   71.6856   -7.2122 C.3     1  UNL1        0.1686
     33 C          17.2166   72.9463   -7.5506 C.3     1  UNL1        0.1760
     34 O          16.5872   69.5540   -6.0742 O.3     1  UNL1       -0.3801
     35 O          15.8897   71.1165   -8.4115 O.3     1  UNL1       -0.3794
     36 O          17.7229   73.5325   -6.3520 O.3     1  UNL1       -0.3263
     37 H          16.1800   69.1552   -6.8556 H       1  UNL1        0.2105
     38 H          15.3128   71.7849   -8.8077 H       1  UNL1        0.2105
     39 C          18.7314   69.7233   -3.6751 C.2     1  UNL1        0.2231
     40 C          19.7659   68.7996   -3.0844 C.3     1  UNL1        0.0946
     41 N          19.0280   70.4597   -4.7633 N.am    1  UNL1       -0.2994
     42 O          17.6319   69.8041   -3.1704 O.2     1  UNL1       -0.2751
     43 H          19.9079   70.3953   -5.1672 H       1  UNL1        0.1496
     44 C          16.3058   73.9499   -8.2607 C.3     1  UNL1        0.1693
     45 O          16.3353   73.7073   -9.6687 O.3     1  UNL1       -0.3794
     46 H          15.7502   74.3595  -10.0773 H       1  UNL1        0.2105
@<TRIPOS>BOND
     1    29    30    1
     2    29    28    1
     3    29    36    1
     4    30    31    1
     5    30    41    1
     6    31    32    1
     7    31    34    1
     8    32    33    1
     9    32    35    1
    10    33    44    1
    11    33    36    1
    12    44    45    1
    13    39    40    1
    14    39    41   am
    15    39    42    2
    16    41    43    1
    17    28    25    1
    18    34    37    1
    19    35    38    1
    20    45    46    1
    21    15    16   ar
    22    15    20   ar
    23    15     6    1
    24    16    17   ar
    25    16    21    2
    26    17    18   ar
    27    17    23    1
    28    18    19   ar
    29    18    22    2
    30    19    20   ar
    31     6     7    1
    32     6    11    1
    33     7     8    1
    34     7     9    1
    35     8    13    1
    36     9    10    1
    37     9    12    1
    38    10    11    1
    39    10     5    1
    40    12    14    1
    41     5     4    1
    42     4     1    1
    43     1     2    2
    44     1     3    1
    45     1    24    1
    46    24    25    1
    47    25    26    2
    48    25    27    1
@<TRIPOS>MOLECULE
UD1
 46 48 0 0 0
SMALL
GASTEIGER

@<TRIPOS>ATOM
      1 P          19.3872   69.5879   -3.1864 P.3     1  UNL1        0.2189
      2 O          20.4682   68.5789   -3.2307 O.2     1  UNL1       -0.5170
      3 O          18.3257   69.1876   -2.0438 O.3     1  UNL1       -0.4371
      4 O          18.6436   69.6398   -4.6138 O.3     1  UNL1       -0.3112
      5 C          17.4446   70.3937   -4.4286 C.3     1  UNL1        0.1811
      6 C          18.4840   72.4031   -7.2231 C.3     1  UNL1        0.2383
      7 C          18.2821   70.9866   -7.8173 C.3     1  UNL1        0.1895
      8 O          17.8685   71.0591   -9.1822 O.3     1  UNL1       -0.3779
      9 C          17.1484   70.4177   -6.9249 C.3     1  UNL1        0.1713
     10 C          17.2057   71.2820   -5.6505 C.3     1  UNL1        0.1764
     11 O          18.2978   72.2042   -5.8056 O.3     1  UNL1       -0.3308
     12 O          15.8829   70.5563   -7.5747 O.3     1  UNL1       -0.3794
     13 H          17.7614   70.1488   -9.4911 H       1  UNL1        0.2106
     14 H          15.9309   70.0426   -8.3920 H       1  UNL1        0.2105
     15 N          19.8333   72.8960   -7.5024 N.ar    1  UNL1       -0.2551
     16 C          20.0310   73.7605   -8.5128 C.ar    1  UNL1        0.3323
     17 N          21.2605   74.2333   -8.7898 N.ar    1  UNL1       -0.2743
     18 C          22.3217   73.8369   -8.0586 C.ar    1  UNL1        0.2626
     19 C          22.1287   72.9226   -6.9957 C.ar    1  UNL1        0.0795
     20 C          20.8839   72.4683   -6.7362 C.ar    1  UNL1        0.0869
     21 O          19.0839   74.1274   -9.1813 O.2     1  UNL1       -0.2464
     22 O          23.4346   74.2601   -8.3112 O.2     1  UNL1       -0.2670
     23 H          21.3841   74.8600   -9.5194 H       1  UNL1        0.1734
     24 O          20.0143   71.0322   -2.8555 O.3     1  UNL1       -0.2703
     25 P          21.4214   70.7705   -2.1200 P.3     1  UNL1        0.2208
     26 O          22.4355   70.3748   -3.1219 O.2     1  UNL1       -0.5170
     27 O          21.2504   69.5921   -1.0364 O.3     1  UNL1       -0.4371
     28 O          21.8982   72.1161   -1.3766 O.3     1  UNL1       -0.2865
     29 C          20.7756   72.6019   -0.6385 C.3     1  UNL1        0.2611
     30 C          20.7393   74.1289   -0.7211 C.3     1  UNL1        0.1582
     31 C          22.0461   74.6929   -0.1520 C.3     1  UNL1        0.1625
     32 C          22.2556   74.1208    1.2540 C.3     1  UNL1        0.1686
     33 C          22.1805   72.5939    1.1871 C.3     1  UNL1        0.1760
     34 O          21.9639   76.1177   -0.0855 O.3     1  UNL1       -0.3801
     35 O          23.5378   74.5165    1.7449 O.3     1  UNL1       -0.3794
     36 O          20.8914   72.1945    0.7232 O.3     1  UNL1       -0.3263
     37 H          22.8047   76.4295    0.2768 H       1  UNL1        0.2105
     38 H          23.6285   74.1352    2.6297 H       1  UNL1        0.2105
     39 C          21.6868   74.8250   -2.8546 C.2     1  UNL1        0.2231
     40 C          21.5376   75.2493   -4.2934 C.3     1  UNL1        0.0946
     41 N          20.5950   74.5406   -2.1190 N.am    1  UNL1       -0.2994
     42 O          22.7901   74.7403   -2.3588 O.2     1  UNL1       -0.2751
     43 H          19.7119   74.6086   -2.5155 H       1  UNL1        0.1496
     44 C          22.4209   72.0111    2.5812 C.3     1  UNL1        0.1693
     45 O          21.1675   71.8178    3.2398 O.3     1  UNL1       -0.3794
     46 H          21.3635   71.4506    4.1123 H       1  UNL1        0.2105
@<TRIPOS>BOND
     1    29    30    1
     2    29    28    1
     3    29    36    1
     4    30    31    1
     5    30    41    1
     6    31    32    1
     7    31    34    1
     8    32    33    1
     9    32    35    1
    10    33    44    1
    11    33    36    1
    12    44    45    1
    13    39    40    1
    14    39    41   am
    15    39    42    2
    16    41    43    1
    17    28    25    1
    18    34    37    1
    19    35    38    1
    20    45    46    1
    21    15    16   ar
    22    15    20   ar
    23    15     6    1
    24    16    17   ar
    25    16    21    2
    26    17    18   ar
    27    17    23    1
    28    18    19   ar
    29    18    22    2
    30    19    20   ar
    31     6     7    1
    32     6    11    1
    33     7     8    1
    34     7     9    1
    35     8    13    1
    36     9    10    1
    37     9    12    1
    38    10    11    1
    39    10     5    1
    40    12    14    1
    41     5     4    1
    42     4     1    1
    43     1     2    2
    44     1     3    1
    45     1    24    1
    46    24    25    1
    47    25    26    2
    48    25    27    1
@<TRIPOS>MOLECULE
UD1
 46 48 0 0 0
SMALL
GASTEIGER

@<TRIPOS>ATOM
      1 P          18.9146   70.3602   -3.0334 P.3     1  UNL1        0.2189
      2 O          17.5601   70.3113   -2.4403 O.2     1  UNL1       -0.5170
      3 O          19.9079   69.4225   -2.1811 O.3     1  UNL1       -0.4371
      4 O          19.4562   71.8764   -3.0084 O.3     1  UNL1       -0.3112
      5 C          19.0479   72.4413   -1.7617 C.3     1  UNL1        0.1811
      6 C          21.4095   73.9820    0.4691 C.3     1  UNL1        0.2383
      7 C          22.2764   73.1047   -0.4684 C.3     1  UNL1        0.1895
      8 O          23.5710   73.6786   -0.6529 O.3     1  UNL1       -0.3779
      9 C          21.4635   73.1372   -1.7887 C.3     1  UNL1        0.1713
     10 C          20.0408   73.5267   -1.3428 C.3     1  UNL1        0.1764
     11 O          20.0575   73.6476    0.0898 O.3     1  UNL1       -0.3308
     12 O          21.9998   74.1150   -2.6826 O.3     1  UNL1       -0.3794
     13 H          24.0582   73.0869   -1.2428 H       1  UNL1        0.2106
     14 H          22.9082   73.8477   -2.8763 H       1  UNL1        0.2105
     15 N          21.6517   73.6403    1.8712 N.ar    1  UNL1       -0.2551
     16 C          21.5005   72.3695    2.2830 C.ar    1  UNL1        0.3323
     17 N          21.7203   72.0257    3.5658 N.ar    1  UNL1       -0.2743
     18 C          22.0893   72.9594    4.4659 C.ar    1  UNL1        0.2626
     19 C          22.2463   74.3021    4.0472 C.ar    1  UNL1        0.0795
     20 C          22.0246   74.6184    2.7533 C.ar    1  UNL1        0.0869
     21 O          21.1682   71.5160    1.4831 O.2     1  UNL1       -0.2464
     22 O          22.2836   72.6505    5.6270 O.2     1  UNL1       -0.2670
     23 H          21.6111   71.1034    3.8444 H       1  UNL1        0.1734
     24 O          18.8539   69.8372   -4.5538 O.3     1  UNL1       -0.2703
     25 P          17.3819   70.1810   -5.1053 P.3     1  UNL1        0.2208
     26 O          16.7133   71.1178   -4.1757 O.2     1  UNL1       -0.5170
     27 O          16.5187   68.8262   -5.2136 O.3     1  UNL1       -0.4371
     28 O          17.4974   70.8597   -6.5602 O.3     1  UNL1       -0.2865
     29 C          18.0777   72.1513   -6.3701 C.3     1  UNL1        0.2611
     30 C          17.2399   73.1953   -7.1104 C.3     1  UNL1        0.1582
     31 C          17.1939   72.8366   -8.5999 C.3     1  UNL1        0.1625
     32 C          18.6299   72.6726   -9.1091 C.3     1  UNL1        0.1686
     33 C          19.3620   71.6655   -8.2197 C.3     1  UNL1        0.1760
     34 O          16.5420   73.8815   -9.3242 O.3     1  UNL1       -0.3801
     35 O          18.6079   72.1956  -10.4558 O.3     1  UNL1       -0.3794
     36 O          19.4098   72.1518   -6.8789 O.3     1  UNL1       -0.3263
     37 H          16.5350   73.6149  -10.2538 H       1  UNL1        0.2105
     38 H          19.5299   72.1060  -10.7359 H       1  UNL1        0.2105
     39 C          15.4493   74.2645   -5.8514 C.2     1  UNL1        0.2231
     40 C          14.0498   74.2765   -5.2914 C.3     1  UNL1        0.0946
     41 N          15.8803   73.2076   -6.5666 N.am    1  UNL1       -0.2994
     42 O          16.1880   75.2063   -5.6575 O.2     1  UNL1       -0.2751
     43 H          15.2894   72.4537   -6.7217 H       1  UNL1        0.1496
     44 C          20.7878   71.4700   -8.7394 C.3     1  UNL1        0.1693
     45 O          21.2986   72.7185   -9.2111 O.3     1  UNL1       -0.3794
     46 H          22.1962   72.5513   -9.5291 H       1  UNL1        0.2105
@<TRIPOS>BOND
     1    29    30    1
     2    29    28    1
     3    29    36    1
     4    30    31    1
     5    30    41    1
     6    31    32    1
     7    31    34    1
     8    32    33    1
     9    32    35    1
    10    33    44    1
    11    33    36    1
    12    44    45    1
    13    39    40    1
    14    39    41   am
    15    39    42    2
    16    41    43    1
    17    28    25    1
    18    34    37    1
    19    35    38    1
    20    45    46    1
    21    15    16   ar
    22    15    20   ar
    23    15     6    1
    24    16    17   ar
    25    16    21    2
    26    17    18   ar
    27    17    23    1
    28    18    19   ar
    29    18    22    2
    30    19    20   ar
    31     6     7    1
    32     6    11    1
    33     7     8    1
    34     7     9    1
    35     8    13    1
    36     9    10    1
    37     9    12    1
    38    10    11    1
    39    10     5    1
    40    12    14    1
    41     5     4    1
    42     4     1    1
    43     1     2    2
    44     1     3    1
    45     1    24    1
    46    24    25    1
    47    25    26    2
    48    25    27    1
