@<TRIPOS>MOLECULE
UDP-glaA
 43 45 0 0 0
SMALL
GASTEIGER

@<TRIPOS>ATOM
      1 P          22.3689   71.5776   -3.0316 P.3     1  UNL1        0.2189
      2 O          22.0300   73.1441   -2.8118 O.3     1  UNL1       -0.4371
      3 O          23.8058   71.2787   -3.3452 O.2     1  UNL1       -0.5170
      4 O          21.2932   71.0979   -4.1398 O.3     1  UNL1       -0.3112
      5 C          20.3424   70.1107   -3.7782 C.3     1  UNL1        0.1811
      6 O          18.6889   71.4773   -4.8611 O.3     1  UNL1       -0.3308
      7 O          16.7587   70.4337   -2.8174 O.3     1  UNL1       -0.3794
      8 O          16.1693   68.9309   -5.0151 O.3     1  UNL1       -0.3779
      9 C          17.8428   69.7639   -3.4607 C.3     1  UNL1        0.1713
     10 C          17.4822   69.4383   -4.8947 C.3     1  UNL1        0.1895
     11 C          18.9760   70.7662   -3.6367 C.3     1  UNL1        0.1764
     12 C          17.6526   70.7851   -5.5768 C.3     1  UNL1        0.2383
     13 H          17.0492   70.6563   -1.9165 H       1  UNL1        0.2105
     14 H          16.1130   68.1311   -4.4643 H       1  UNL1        0.2106
     15 O          15.8558   70.3087   -7.7028 O.2     1  UNL1       -0.2464
     16 O          19.2532   70.3122  -10.8167 O.2     1  UNL1       -0.2670
     17 N          18.0400   70.6577   -6.9526 N.ar    1  UNL1       -0.2551
     18 N          17.5488   70.3102   -9.2519 N.ar    1  UNL1       -0.2743
     19 C          17.0595   70.4180   -7.9435 C.ar    1  UNL1        0.3323
     20 C          19.3794   70.7700   -7.3088 C.ar    1  UNL1        0.0869
     21 C          19.8301   70.6653   -8.5609 C.ar    1  UNL1        0.0795
     22 C          18.8712   70.4142   -9.6550 C.ar    1  UNL1        0.2626
     23 H          16.8618   70.1373   -9.9808 H       1  UNL1        0.1734
     24 O          21.8199   70.8939   -1.6728 O.3     1  UNL1       -0.2703
     25 P          21.1676   71.5470   -0.3459 P.3     1  UNL1        0.2208
     26 O          21.1538   70.3173    0.7046 O.3     1  UNL1       -0.4371
     27 O          19.8272   72.1867   -0.5693 O.2     1  UNL1       -0.5170
     28 O          22.3000   72.5506    0.2149 O.3     1  UNL1       -0.2858
     29 O          23.3465   71.7865    2.1949 O.3     1  UNL1       -0.3226
     30 O          24.8265   75.6569    1.8653 O.3     1  UNL1       -0.3794
     31 O          22.0282   75.0855    1.2748 O.3     1  UNL1       -0.3775
     32 O          25.3225   73.4485    3.4486 O.3     1  UNL1       -0.3792
     33 C          24.3484   74.3822    1.4451 C.3     1  UNL1        0.1718
     34 C          22.9068   74.1692    1.9193 C.3     1  UNL1        0.1968
     35 C          25.2571   73.2959    2.0269 C.3     1  UNL1        0.1723
     36 C          22.4431   72.7377    1.6223 C.3     1  UNL1        0.2706
     37 C          24.6806   71.9186    1.7065 C.3     1  UNL1        0.1830
     38 H          25.7406   75.7472    1.5461 H       1  UNL1        0.2105
     39 H          21.1292   74.9069    1.5983 H       1  UNL1        0.2106
     40 H          24.4801   73.1490    3.8305 H       1  UNL1        0.2106
     41 O          26.7806   71.1525    2.4183 O.co2   1  UNL1       -0.5466
     42 O          24.9936   69.7904    2.8031 O.co2   1  UNL1       -0.5466
     43 C          25.4658   70.8297    2.3660 C.2     1  UNL1        0.0799
@<TRIPOS>UNITY_ATOM_ATTR
41 1
charge -1
@<TRIPOS>BOND
     1     1     4    1
     2     1    24    1
     3     1     2    1
     4     1     3    2
     5    25    28    1
     6    25    24    1
     7    25    26    1
     8    25    27    2
     9     6    11    1
    10     6    12    1
    11    29    36    1
    12    29    37    1
    13     7     9    1
    14     7    13    1
    15     8    10    1
    16     8    14    1
    17     4     5    1
    18    28    36    1
    19    30    33    1
    20    30    38    1
    21    31    34    1
    22    31    39    1
    23    32    35    1
    24    32    40    1
    25    41    43   ar
    26    15    19    2
    27    42    43   ar
    28    16    22    2
    29    17    12    1
    30    17    19   ar
    31    17    20   ar
    32    18    19   ar
    33    18    22   ar
    34    18    23    1
    35     9    10    1
    36     9    11    1
    37    10    12    1
    38    11     5    1
    39    33    34    1
    40    33    35    1
    41    34    36    1
    42    35    37    1
    43    37    43    1
    44    20    21   ar
    45    21    22   ar
@<TRIPOS>MOLECULE
UDP-glaA
 43 45 0 0 0
SMALL
GASTEIGER

@<TRIPOS>ATOM
      1 P          22.8717   71.3450   -2.4162 P.3     1  UNL1        0.2189
      2 O          22.3796   72.8084   -2.8996 O.3     1  UNL1       -0.4371
      3 O          24.1095   70.8370   -3.0958 O.2     1  UNL1       -0.5170
      4 O          21.5544   70.4198   -2.5717 O.3     1  UNL1       -0.3112
      5 C          20.8431   70.4544   -3.7974 C.3     1  UNL1        0.1811
      6 O          18.9503   71.6018   -4.7328 O.3     1  UNL1       -0.3308
      7 O          17.3471   70.3741   -2.5161 O.3     1  UNL1       -0.3794
      8 O          16.7431   68.7776   -4.6426 O.3     1  UNL1       -0.3779
      9 C          18.4401   69.8246   -3.2517 C.3     1  UNL1        0.1713
     10 C          17.9929   69.4361   -4.6451 C.3     1  UNL1        0.1895
     11 C          19.4276   70.9488   -3.5357 C.3     1  UNL1        0.1764
     12 C          17.9422   70.7823   -5.3473 C.3     1  UNL1        0.2383
     13 H          17.6892   70.6435   -1.6466 H       1  UNL1        0.2105
     14 H          16.8306   67.9858   -4.0845 H       1  UNL1        0.2106
     15 O          15.9928   70.2456   -7.3188 O.2     1  UNL1       -0.2464
     16 O          19.1122   70.4047  -10.7074 O.2     1  UNL1       -0.2670
     17 N          18.2169   70.6786   -6.7520 N.ar    1  UNL1       -0.2551
     18 N          17.5475   70.3246   -9.0049 N.ar    1  UNL1       -0.2743
     19 C          17.1665   70.4050   -7.6590 C.ar    1  UNL1        0.3323
     20 C          19.5158   70.8472   -7.2186 C.ar    1  UNL1        0.0869
     21 C          19.8630   70.7680   -8.5051 C.ar    1  UNL1        0.0795
     22 C          18.8258   70.4845   -9.5168 C.ar    1  UNL1        0.2626
     23 H          16.8088   70.1282   -9.6748 H       1  UNL1        0.1734
     24 O          23.0062   71.5189   -0.8140 O.3     1  UNL1       -0.2703
     25 P          21.8806   71.7149    0.3294 P.3     1  UNL1        0.2208
     26 O          21.7788   70.2489    1.0051 O.3     1  UNL1       -0.4371
     27 O          20.5746   72.2557   -0.1782 O.2     1  UNL1       -0.5170
     28 O          22.5917   72.6328    1.4500 O.3     1  UNL1       -0.2858
     29 O          24.1115   72.4726    3.2567 O.3     1  UNL1       -0.3226
     30 O          20.8965   74.4521    4.9959 O.3     1  UNL1       -0.3794
     31 O          20.4506   72.2399    3.1483 O.3     1  UNL1       -0.3775
     32 O          23.4828   73.8061    5.7195 O.3     1  UNL1       -0.3792
     33 C          21.8220   74.0639    3.9844 C.3     1  UNL1        0.1718
     34 C          21.7177   72.5592    3.7136 C.3     1  UNL1        0.1968
     35 C          23.2383   74.4158    4.4477 C.3     1  UNL1        0.1723
     36 C          22.8234   72.1020    2.7542 C.3     1  UNL1        0.2706
     37 C          24.2552   73.8799    3.4423 C.3     1  UNL1        0.1830
     38 H          20.9991   75.4089    5.1358 H       1  UNL1        0.2105
     39 H          20.4349   71.2817    2.9860 H       1  UNL1        0.2106
     40 H          23.6100   72.8517    5.5851 H       1  UNL1        0.2106
     41 O          26.5464   73.6343    3.0022 O.co2   1  UNL1       -0.5466
     42 O          25.9677   74.5972    4.9859 O.co2   1  UNL1       -0.5466
     43 C          25.6576   74.0872    3.9190 C.2     1  UNL1        0.0799
@<TRIPOS>UNITY_ATOM_ATTR
41 1
charge -1
@<TRIPOS>BOND
     1     1     4    1
     2     1    24    1
     3     1     2    1
     4     1     3    2
     5    25    28    1
     6    25    24    1
     7    25    26    1
     8    25    27    2
     9     6    11    1
    10     6    12    1
    11    29    36    1
    12    29    37    1
    13     7     9    1
    14     7    13    1
    15     8    10    1
    16     8    14    1
    17     4     5    1
    18    28    36    1
    19    30    33    1
    20    30    38    1
    21    31    34    1
    22    31    39    1
    23    32    35    1
    24    32    40    1
    25    41    43   ar
    26    15    19    2
    27    42    43   ar
    28    16    22    2
    29    17    12    1
    30    17    19   ar
    31    17    20   ar
    32    18    19   ar
    33    18    22   ar
    34    18    23    1
    35     9    10    1
    36     9    11    1
    37    10    12    1
    38    11     5    1
    39    33    34    1
    40    33    35    1
    41    34    36    1
    42    35    37    1
    43    37    43    1
    44    20    21   ar
    45    21    22   ar
@<TRIPOS>MOLECULE
UDP-glaA
 43 45 0 0 0
SMALL
GASTEIGER

@<TRIPOS>ATOM
      1 P          22.8542   71.3967   -2.1108 P.3     1  UNL1        0.2189
      2 O          24.1662   70.7590   -2.8104 O.3     1  UNL1       -0.4371
      3 O          21.6298   70.5300   -2.1533 O.2     1  UNL1       -0.5170
      4 O          22.7106   72.8507   -2.8043 O.3     1  UNL1       -0.3112
      5 C          21.7891   73.0048   -3.8703 C.3     1  UNL1        0.1811
      6 O          21.6627   71.0052   -5.1969 O.3     1  UNL1       -0.3308
      7 O          22.9836   72.5895   -7.3733 O.3     1  UNL1       -0.3794
      8 O          20.3640   72.6068   -8.1302 O.3     1  UNL1       -0.3779
      9 C          22.0260   73.0119   -6.4026 C.3     1  UNL1        0.1713
     10 C          20.6527   72.4791   -6.7533 C.3     1  UNL1        0.1895
     11 C          22.3266   72.2846   -5.0987 C.3     1  UNL1        0.1764
     12 C          20.7538   71.0296   -6.3098 C.3     1  UNL1        0.2383
     13 H          23.8519   72.9205   -7.0868 H       1  UNL1        0.2105
     14 H          20.4261   73.5509   -8.3560 H       1  UNL1        0.2106
     15 O          18.6377   70.3809   -8.0640 O.2     1  UNL1       -0.2464
     16 O          15.9456   68.9853   -4.5936 O.2     1  UNL1       -0.2670
     17 N          19.4894   70.4947   -5.8921 N.ar    1  UNL1       -0.2551
     18 N          17.2984   69.6869   -6.3347 N.ar    1  UNL1       -0.2743
     19 C          18.4930   70.2038   -6.8530 C.ar    1  UNL1        0.3323
     20 C          19.2463   70.2636   -4.5426 C.ar    1  UNL1        0.0869
     21 C          18.1021   69.7698   -4.0643 C.ar    1  UNL1        0.0795
     22 C          17.0100   69.4402   -5.0013 C.ar    1  UNL1        0.2626
     23 H          16.5676   69.4709   -7.0073 H       1  UNL1        0.1734
     24 O          23.3750   71.7542   -0.6222 O.3     1  UNL1       -0.2703
     25 P          22.9924   71.1219    0.8153 P.3     1  UNL1        0.2208
     26 O          24.2799   70.2113    1.1747 O.3     1  UNL1       -0.4371
     27 O          21.6852   70.3825    0.8347 O.2     1  UNL1       -0.5170
     28 O          23.0710   72.3640    1.8424 O.3     1  UNL1       -0.2858
     29 O          24.8559   72.5686    3.3825 O.3     1  UNL1       -0.3226
     30 O          21.9628   75.0307    5.0700 O.3     1  UNL1       -0.3794
     31 O          21.2229   72.4679    3.8909 O.3     1  UNL1       -0.3775
     32 O          24.6283   74.4661    5.5241 O.3     1  UNL1       -0.3792
     33 C          22.7159   74.3789    4.0510 C.3     1  UNL1        0.1718
     34 C          22.5644   72.8582    4.1646 C.3     1  UNL1        0.1968
     35 C          24.1889   74.7708    4.1964 C.3     1  UNL1        0.1723
     36 C          23.5033   72.1440    3.1844 C.3     1  UNL1        0.2706
     37 C          25.0325   73.9732    3.2043 C.3     1  UNL1        0.1830
     38 H          22.0899   75.9886    4.9613 H       1  UNL1        0.2105
     39 H          21.1780   71.4998    3.9652 H       1  UNL1        0.2106
     40 H          24.7291   73.5023    5.6026 H       1  UNL1        0.2106
     41 O          26.7187   75.5371    3.6676 O.co2   1  UNL1       -0.5466
     42 O          27.3692   73.3783    3.3302 O.co2   1  UNL1       -0.5466
     43 C          26.4933   74.2284    3.3990 C.2     1  UNL1        0.0799
@<TRIPOS>UNITY_ATOM_ATTR
41 1
charge -1
@<TRIPOS>BOND
     1     1     4    1
     2     1    24    1
     3     1     2    1
     4     1     3    2
     5    25    28    1
     6    25    24    1
     7    25    26    1
     8    25    27    2
     9     6    11    1
    10     6    12    1
    11    29    36    1
    12    29    37    1
    13     7     9    1
    14     7    13    1
    15     8    10    1
    16     8    14    1
    17     4     5    1
    18    28    36    1
    19    30    33    1
    20    30    38    1
    21    31    34    1
    22    31    39    1
    23    32    35    1
    24    32    40    1
    25    41    43   ar
    26    15    19    2
    27    42    43   ar
    28    16    22    2
    29    17    12    1
    30    17    19   ar
    31    17    20   ar
    32    18    19   ar
    33    18    22   ar
    34    18    23    1
    35     9    10    1
    36     9    11    1
    37    10    12    1
    38    11     5    1
    39    33    34    1
    40    33    35    1
    41    34    36    1
    42    35    37    1
    43    37    43    1
    44    20    21   ar
    45    21    22   ar
@<TRIPOS>MOLECULE
UDP-glaA
 43 45 0 0 0
SMALL
GASTEIGER

@<TRIPOS>ATOM
      1 P          22.2417   71.4553   -2.4973 P.3     1  UNL1        0.2189
      2 O          21.7480   72.9059   -3.0163 O.3     1  UNL1       -0.4371
      3 O          23.3880   70.8648   -3.2651 O.2     1  UNL1       -0.5170
      4 O          20.8877   70.5714   -2.4652 O.3     1  UNL1       -0.3112
      5 C          20.2060   70.3318   -3.6847 C.3     1  UNL1        0.1811
      6 O          18.4808   71.5655   -4.8143 O.3     1  UNL1       -0.3308
      7 O          16.5866   70.3896   -2.8092 O.3     1  UNL1       -0.3794
      8 O          16.1632   68.8368   -5.0104 O.3     1  UNL1       -0.3779
      9 C          17.7326   69.8000   -3.4230 C.3     1  UNL1        0.1713
     10 C          17.4312   69.4417   -4.8629 C.3     1  UNL1        0.1895
     11 C          18.7914   70.8836   -3.5791 C.3     1  UNL1        0.1764
     12 C          17.5164   70.7943   -5.5493 C.3     1  UNL1        0.2383
     13 H          16.8383   70.6376   -1.9033 H       1  UNL1        0.2105
     14 H          16.1539   68.0376   -4.4560 H       1  UNL1        0.2106
     15 O          15.7937   70.2773   -7.7266 O.2     1  UNL1       -0.2464
     16 O          19.2717   70.4133  -10.7470 O.2     1  UNL1       -0.2670
     17 N          17.9446   70.6900   -6.9150 N.ar    1  UNL1       -0.2551
     18 N          17.5268   70.3449   -9.2291 N.ar    1  UNL1       -0.2743
     19 C          16.9992   70.4269   -7.9338 C.ar    1  UNL1        0.3323
     20 C          19.2888   70.8477   -7.2339 C.ar    1  UNL1        0.0869
     21 C          19.7761   70.7671   -8.4740 C.ar    1  UNL1        0.0795
     22 C          18.8555   70.4941   -9.5954 C.ar    1  UNL1        0.2626
     23 H          16.8655   70.1558   -9.9775 H       1  UNL1        0.1734
     24 O          22.5433   71.7145   -0.9298 O.3     1  UNL1       -0.2703
     25 P          21.5466   71.8211    0.3382 P.3     1  UNL1        0.2208
     26 O          21.2673   70.2748    0.7216 O.3     1  UNL1       -0.4371
     27 O          20.3073   72.6298    0.0813 O.2     1  UNL1       -0.5170
     28 O          22.4699   72.3791    1.5382 O.3     1  UNL1       -0.2858
     29 O          22.1669   74.1197    3.1124 O.3     1  UNL1       -0.3226
     30 O          26.2400   74.3625    2.3184 O.3     1  UNL1       -0.3794
     31 O          24.3366   73.8775    0.1625 O.3     1  UNL1       -0.3775
     32 O          24.4753   75.5018    4.1122 O.3     1  UNL1       -0.3792
     33 C          24.9617   73.7623    2.5083 C.3     1  UNL1        0.1718
     34 C          23.9638   74.2915    1.4727 C.3     1  UNL1        0.1968
     35 C          24.4691   74.0831    3.9221 C.3     1  UNL1        0.1723
     36 C          22.5480   73.7842    1.7740 C.3     1  UNL1        0.2706
     37 C          23.0413   73.5702    4.0968 C.3     1  UNL1        0.1830
     38 H          26.8373   74.0011    2.9953 H       1  UNL1        0.2105
     39 H          23.6727   74.2269   -0.4556 H       1  UNL1        0.2106
     40 H          23.7336   75.8836    3.6130 H       1  UNL1        0.2106
     41 O          22.5547   72.9561    6.3081 O.co2   1  UNL1       -0.5466
     42 O          21.9992   75.0737    5.6726 O.co2   1  UNL1       -0.5466
     43 C          22.4723   73.9753    5.4193 C.2     1  UNL1        0.0799
@<TRIPOS>UNITY_ATOM_ATTR
41 1
charge -1
@<TRIPOS>BOND
     1     1     4    1
     2     1    24    1
     3     1     2    1
     4     1     3    2
     5    25    28    1
     6    25    24    1
     7    25    26    1
     8    25    27    2
     9     6    11    1
    10     6    12    1
    11    29    36    1
    12    29    37    1
    13     7     9    1
    14     7    13    1
    15     8    10    1
    16     8    14    1
    17     4     5    1
    18    28    36    1
    19    30    33    1
    20    30    38    1
    21    31    34    1
    22    31    39    1
    23    32    35    1
    24    32    40    1
    25    41    43   ar
    26    15    19    2
    27    42    43   ar
    28    16    22    2
    29    17    12    1
    30    17    19   ar
    31    17    20   ar
    32    18    19   ar
    33    18    22   ar
    34    18    23    1
    35     9    10    1
    36     9    11    1
    37    10    12    1
    38    11     5    1
    39    33    34    1
    40    33    35    1
    41    34    36    1
    42    35    37    1
    43    37    43    1
    44    20    21   ar
    45    21    22   ar
@<TRIPOS>MOLECULE
UDP-glaA
 43 45 0 0 0
SMALL
GASTEIGER

@<TRIPOS>ATOM
      1 P          19.7490   73.5001   -3.5840 P.3     1  UNL1        0.2189
      2 O          19.7082   74.1334   -2.0959 O.3     1  UNL1       -0.4371
      3 O          19.6328   74.4971   -4.6996 O.2     1  UNL1       -0.5170
      4 O          18.6137   72.3489   -3.5490 O.3     1  UNL1       -0.3112
      5 C          17.9699   72.0697   -2.3174 C.3     1  UNL1        0.1811
      6 O          16.6228   70.9352   -3.9521 O.3     1  UNL1       -0.3308
      7 O          16.2558   68.7913   -1.8880 O.3     1  UNL1       -0.3794
      8 O          18.1649   67.7274   -3.5186 O.3     1  UNL1       -0.3779
      9 C          17.4034   69.5951   -2.1612 C.3     1  UNL1        0.1713
     10 C          18.0750   69.1349   -3.4378 C.3     1  UNL1        0.1895
     11 C          16.9211   70.9893   -2.5396 C.3     1  UNL1        0.1764
     12 C          17.1660   69.7241   -4.5030 C.3     1  UNL1        0.2383
     13 H          15.8374   69.1468   -1.0854 H       1  UNL1        0.2105
     14 H          18.6683   67.4213   -2.7446 H       1  UNL1        0.2106
     15 O          15.9826   69.7906   -7.0663 O.2     1  UNL1       -0.2464
     16 O          19.9686   70.9332   -9.0775 O.2     1  UNL1       -0.2670
     17 N          17.8707   70.0364   -5.7134 N.ar    1  UNL1       -0.2551
     18 N          17.9684   70.3590   -8.0661 N.ar    1  UNL1       -0.2743
     19 C          17.1835   70.0417   -6.9497 C.ar    1  UNL1        0.3323
     20 C          19.2284   70.3332   -5.6682 C.ar    1  UNL1        0.0869
     21 C          19.9627   70.6343   -6.7415 C.ar    1  UNL1        0.0795
     22 C          19.3214   70.6607   -8.0710 C.ar    1  UNL1        0.2626
     23 H          17.4955   70.3682   -8.9658 H       1  UNL1        0.1734
     24 O          21.1261   72.6522   -3.5793 O.3     1  UNL1       -0.2703
     25 P          21.8306   71.7807   -2.4146 P.3     1  UNL1        0.2208
     26 O          23.1074   71.1265   -3.1614 O.3     1  UNL1       -0.4371
     27 O          20.9207   70.7845   -1.7548 O.2     1  UNL1       -0.5170
     28 O          22.4614   72.8748   -1.4100 O.3     1  UNL1       -0.2858
     29 O          22.8162   71.8974    0.7156 O.3     1  UNL1       -0.3226
     30 O          23.9313   75.8470    1.3760 O.3     1  UNL1       -0.3794
     31 O          21.5884   75.2200   -0.2436 O.3     1  UNL1       -0.3775
     32 O          24.0539   73.4681    2.7746 O.3     1  UNL1       -0.3792
     33 C          23.7582   74.6203    0.6722 C.3     1  UNL1        0.1718
     34 C          22.2701   74.2694    0.5678 C.3     1  UNL1        0.1968
     35 C          24.5068   73.5118    1.4174 C.3     1  UNL1        0.1723
     36 C          22.0826   72.8713   -0.0343 C.3     1  UNL1        0.2706
     37 C          24.2170   72.1646    0.7591 C.3     1  UNL1        0.1830
     38 H          24.8857   76.0278    1.4201 H       1  UNL1        0.2105
     39 H          20.6551   74.9520   -0.2881 H       1  UNL1        0.2106
     40 H          23.1647   73.0754    2.7910 H       1  UNL1        0.2106
     41 O          24.0181   70.6720    2.5580 O.co2   1  UNL1       -0.5466
     42 O          25.8961   70.5083    1.2760 O.co2   1  UNL1       -0.5466
     43 C          24.8235   71.0365    1.5314 C.2     1  UNL1        0.0799
@<TRIPOS>UNITY_ATOM_ATTR
41 1
charge -1
@<TRIPOS>BOND
     1     1     4    1
     2     1    24    1
     3     1     2    1
     4     1     3    2
     5    25    28    1
     6    25    24    1
     7    25    26    1
     8    25    27    2
     9     6    11    1
    10     6    12    1
    11    29    36    1
    12    29    37    1
    13     7     9    1
    14     7    13    1
    15     8    10    1
    16     8    14    1
    17     4     5    1
    18    28    36    1
    19    30    33    1
    20    30    38    1
    21    31    34    1
    22    31    39    1
    23    32    35    1
    24    32    40    1
    25    41    43   ar
    26    15    19    2
    27    42    43   ar
    28    16    22    2
    29    17    12    1
    30    17    19   ar
    31    17    20   ar
    32    18    19   ar
    33    18    22   ar
    34    18    23    1
    35     9    10    1
    36     9    11    1
    37    10    12    1
    38    11     5    1
    39    33    34    1
    40    33    35    1
    41    34    36    1
    42    35    37    1
    43    37    43    1
    44    20    21   ar
    45    21    22   ar
@<TRIPOS>MOLECULE
UDP-glaA
 43 45 0 0 0
SMALL
GASTEIGER

@<TRIPOS>ATOM
      1 P          22.8778   71.5906   -3.2247 P.3     1  UNL1        0.2189
      2 O          22.5615   71.9527   -4.7694 O.3     1  UNL1       -0.4371
      3 O          24.2211   70.9666   -2.9831 O.2     1  UNL1       -0.5170
      4 O          21.6013   70.7125   -2.7610 O.3     1  UNL1       -0.3112
      5 C          20.7240   70.2143   -3.7567 C.3     1  UNL1        0.1811
      6 O          18.9071   71.4749   -4.6968 O.3     1  UNL1       -0.3308
      7 O          17.2014   70.2635   -2.5487 O.3     1  UNL1       -0.3794
      8 O          16.5694   68.7565   -4.7317 O.3     1  UNL1       -0.3779
      9 C          18.2832   69.6836   -3.2776 C.3     1  UNL1        0.1713
     10 C          17.8483   69.3552   -4.6903 C.3     1  UNL1        0.1895
     11 C          19.3277   70.7674   -3.5096 C.3     1  UNL1        0.1764
     12 C          17.8754   70.7211   -5.3546 C.3     1  UNL1        0.2383
     13 H          17.5370   70.4925   -1.6653 H       1  UNL1        0.2105
     14 H          16.6080   67.9463   -4.1948 H       1  UNL1        0.2106
     15 O          15.9484   70.3094   -7.3776 O.2     1  UNL1       -0.2464
     16 O          19.1409   70.4379  -10.6989 O.2     1  UNL1       -0.2670
     17 N          18.1749   70.6434   -6.7559 N.ar    1  UNL1       -0.2551
     18 N          17.5395   70.3731   -9.0301 N.ar    1  UNL1       -0.2743
     19 C          17.1340   70.4331   -7.6903 C.ar    1  UNL1        0.3323
     20 C          19.4886   70.7747   -7.1922 C.ar    1  UNL1        0.0869
     21 C          19.8590   70.7156   -8.4733 C.ar    1  UNL1        0.0795
     22 C          18.8332   70.4977   -9.5124 C.ar    1  UNL1        0.2626
     23 H          16.8080   70.2221   -9.7194 H       1  UNL1        0.1734
     24 O          22.6437   72.9998   -2.4669 O.3     1  UNL1       -0.2703
     25 P          23.6533   74.2284   -2.1771 P.3     1  UNL1        0.2208
     26 O          22.6572   75.4840   -1.9599 O.3     1  UNL1       -0.4371
     27 O          24.6910   74.4373   -3.2425 O.2     1  UNL1       -0.5170
     28 O          24.2550   73.9259   -0.7106 O.3     1  UNL1       -0.2858
     29 O          22.4867   73.3889    0.7672 O.3     1  UNL1       -0.3226
     30 O          25.7887   73.2980    3.2907 O.3     1  UNL1       -0.3794
     31 O          25.5317   75.3767    1.2612 O.3     1  UNL1       -0.3775
     32 O          23.1155   72.6237    3.4612 O.3     1  UNL1       -0.3792
     33 C          25.0347   73.1472    2.0911 C.3     1  UNL1        0.1718
     34 C          24.4752   74.4999    1.6379 C.3     1  UNL1        0.1968
     35 C          23.8881   72.1652    2.3470 C.3     1  UNL1        0.1723
     36 C          23.5233   74.3230    0.4483 C.3     1  UNL1        0.2706
     37 C          22.9853   72.0987    1.1171 C.3     1  UNL1        0.1830
     38 H          26.1205   72.4189    3.5411 H       1  UNL1        0.2105
     39 H          25.1298   76.2138    0.9737 H       1  UNL1        0.2106
     40 H          22.5871   73.3886    3.1769 H       1  UNL1        0.2106
     41 O          20.8487   71.9381    2.0726 O.co2   1  UNL1       -0.5466
     42 O          21.6436   70.0952    0.9915 O.co2   1  UNL1       -0.5466
     43 C          21.7796   71.2501    1.3686 C.2     1  UNL1        0.0799
@<TRIPOS>UNITY_ATOM_ATTR
41 1
charge -1
@<TRIPOS>BOND
     1     1     4    1
     2     1    24    1
     3     1     2    1
     4     1     3    2
     5    25    28    1
     6    25    24    1
     7    25    26    1
     8    25    27    2
     9     6    11    1
    10     6    12    1
    11    29    36    1
    12    29    37    1
    13     7     9    1
    14     7    13    1
    15     8    10    1
    16     8    14    1
    17     4     5    1
    18    28    36    1
    19    30    33    1
    20    30    38    1
    21    31    34    1
    22    31    39    1
    23    32    35    1
    24    32    40    1
    25    41    43   ar
    26    15    19    2
    27    42    43   ar
    28    16    22    2
    29    17    12    1
    30    17    19   ar
    31    17    20   ar
    32    18    19   ar
    33    18    22   ar
    34    18    23    1
    35     9    10    1
    36     9    11    1
    37    10    12    1
    38    11     5    1
    39    33    34    1
    40    33    35    1
    41    34    36    1
    42    35    37    1
    43    37    43    1
    44    20    21   ar
    45    21    22   ar
@<TRIPOS>MOLECULE
UDP-glaA
 43 45 0 0 0
SMALL
GASTEIGER

@<TRIPOS>ATOM
      1 P          21.5037   72.5638   -4.7401 P.3     1  UNL1        0.2189
      2 O          21.3651   74.1590   -4.5086 O.3     1  UNL1       -0.4371
      3 O          22.4090   72.1643   -5.8683 O.2     1  UNL1       -0.5170
      4 O          19.9737   72.0518   -4.8515 O.3     1  UNL1       -0.3112
      5 C          19.4174   71.3371   -3.7611 C.3     1  UNL1        0.1811
      6 O          17.5530   71.7567   -5.2179 O.3     1  UNL1       -0.3308
      7 O          15.9021   70.2233   -3.2394 O.3     1  UNL1       -0.3794
      8 O          16.3298   68.3863   -5.2088 O.3     1  UNL1       -0.3779
      9 C          17.2523   70.0071   -3.6491 C.3     1  UNL1        0.1713
     10 C          17.2899   69.4086   -5.0394 C.3     1  UNL1        0.1895
     11 C          17.8996   71.3679   -3.8704 C.3     1  UNL1        0.1764
     12 C          17.0127   70.6205   -5.9125 C.3     1  UNL1        0.2383
     13 H          15.9289   70.6425   -2.3625 H       1  UNL1        0.2105
     14 H          16.5113   67.7010   -4.5426 H       1  UNL1        0.2106
     15 O          15.6252   70.7479   -8.3690 O.2     1  UNL1       -0.2464
     16 O          19.5069   70.2265  -10.7978 O.2     1  UNL1       -0.2670
     17 N          17.6355   70.5215   -7.2016 N.ar    1  UNL1       -0.2551
     18 N          17.5590   70.4877   -9.5768 N.ar    1  UNL1       -0.2743
     19 C          16.8483   70.5967   -8.3743 C.ar    1  UNL1        0.3323
     20 C          19.0124   70.3515   -7.2949 C.ar    1  UNL1        0.0869
     21 C          19.6754   70.2496   -8.4489 C.ar    1  UNL1        0.0795
     22 C          18.9273   70.3174   -9.7200 C.ar    1  UNL1        0.2626
     23 H          17.0134   70.5384  -10.4329 H       1  UNL1        0.1734
     24 O          21.9619   72.0251   -3.2858 O.3     1  UNL1       -0.2703
     25 P          23.4140   71.9916   -2.5767 P.3     1  UNL1        0.2208
     26 O          24.0740   73.4015   -3.0157 O.3     1  UNL1       -0.4371
     27 O          24.2405   70.7860   -2.9221 O.2     1  UNL1       -0.5170
     28 O          23.1041   72.1585   -1.0019 O.3     1  UNL1       -0.2858
     29 O          24.4510   71.1548    0.6648 O.3     1  UNL1       -0.3226
     30 O          20.8887   71.8129    2.7034 O.3     1  UNL1       -0.3794
     31 O          20.8642   70.8542   -0.0509 O.3     1  UNL1       -0.3775
     32 O          23.4477   70.9981    3.3494 O.3     1  UNL1       -0.3792
     33 C          21.9439   72.0423    1.7737 C.3     1  UNL1        0.1718
     34 C          22.0290   70.8902    0.7669 C.3     1  UNL1        0.1968
     35 C          23.2626   72.1654    2.5419 C.3     1  UNL1        0.1723
     36 C          23.2649   71.0415   -0.1286 C.3     1  UNL1        0.2706
     37 C          24.4235   72.2693    1.5551 C.3     1  UNL1        0.1830
     38 H          20.8735   72.5638    3.3211 H       1  UNL1        0.2105
     39 H          20.9676   70.1174   -0.6764 H       1  UNL1        0.2106
     40 H          23.6895   70.2563    2.7694 H       1  UNL1        0.2106
     41 O          26.2720   71.0138    2.2698 O.co2   1  UNL1       -0.5466
     42 O          26.2785   73.2408    2.7573 O.co2   1  UNL1       -0.5466
     43 C          25.7429   72.2610    2.2595 C.2     1  UNL1        0.0799
@<TRIPOS>UNITY_ATOM_ATTR
41 1
charge -1
@<TRIPOS>BOND
     1     1     4    1
     2     1    24    1
     3     1     2    1
     4     1     3    2
     5    25    28    1
     6    25    24    1
     7    25    26    1
     8    25    27    2
     9     6    11    1
    10     6    12    1
    11    29    36    1
    12    29    37    1
    13     7     9    1
    14     7    13    1
    15     8    10    1
    16     8    14    1
    17     4     5    1
    18    28    36    1
    19    30    33    1
    20    30    38    1
    21    31    34    1
    22    31    39    1
    23    32    35    1
    24    32    40    1
    25    41    43   ar
    26    15    19    2
    27    42    43   ar
    28    16    22    2
    29    17    12    1
    30    17    19   ar
    31    17    20   ar
    32    18    19   ar
    33    18    22   ar
    34    18    23    1
    35     9    10    1
    36     9    11    1
    37    10    12    1
    38    11     5    1
    39    33    34    1
    40    33    35    1
    41    34    36    1
    42    35    37    1
    43    37    43    1
    44    20    21   ar
    45    21    22   ar
@<TRIPOS>MOLECULE
UDP-glaA
 43 45 0 0 0
SMALL
GASTEIGER

@<TRIPOS>ATOM
      1 P          20.6337   71.2059   -1.0066 P.3     1  UNL1        0.2189
      2 O          21.1193   70.5463    0.3886 O.3     1  UNL1       -0.4371
      3 O          20.3594   72.6801   -0.9482 O.2     1  UNL1       -0.5170
      4 O          19.3915   70.2774   -1.4651 O.3     1  UNL1       -0.3112
      5 C          19.1134   70.1530   -2.8495 C.3     1  UNL1        0.1811
      6 O          16.9221   69.8922   -1.8986 O.3     1  UNL1       -0.3308
      7 O          16.0477   69.0072   -4.6268 O.3     1  UNL1       -0.3794
      8 O          15.1863   71.5928   -4.5350 O.3     1  UNL1       -0.3779
      9 C          17.0048   70.0021   -4.2636 C.3     1  UNL1        0.1713
     10 C          16.3041   71.2407   -3.7464 C.3     1  UNL1        0.1895
     11 C          17.7436   69.5131   -3.0248 C.3     1  UNL1        0.1764
     12 C          15.9166   70.8197   -2.3390 C.3     1  UNL1        0.2383
     13 H          16.5422   68.2207   -4.9143 H       1  UNL1        0.2105
     14 H          15.5032   71.7401   -5.4428 H       1  UNL1        0.2106
     15 O          13.8129   71.3047   -0.5184 O.2     1  UNL1       -0.2464
     16 O          15.8513   75.1047    1.1073 O.2     1  UNL1       -0.2670
     17 N          15.8719   71.9277   -1.4281 N.ar    1  UNL1       -0.2551
     18 N          14.8291   73.1969    0.2895 N.ar    1  UNL1       -0.2743
     19 C          14.7693   72.0809   -0.5555 C.ar    1  UNL1        0.3323
     20 C          16.9132   72.8489   -1.4055 C.ar    1  UNL1        0.0869
     21 C          16.9557   73.9075   -0.5936 C.ar    1  UNL1        0.0795
     22 C          15.8429   74.1406    0.3481 C.ar    1  UNL1        0.2626
     23 H          14.0467   73.3275    0.9252 H       1  UNL1        0.1734
     24 O          21.8054   70.7791   -2.0363 O.3     1  UNL1       -0.2703
     25 P          22.8425   71.6754   -2.8929 P.3     1  UNL1        0.2208
     26 O          24.1659   70.7481   -2.9612 O.3     1  UNL1       -0.4371
     27 O          23.0765   73.0496   -2.3340 O.2     1  UNL1       -0.5170
     28 O          22.2537   71.6581   -4.3953 O.3     1  UNL1       -0.2858
     29 O          21.7543   73.9187   -4.8850 O.3     1  UNL1       -0.3226
     30 O          20.8753   72.0332   -8.4838 O.3     1  UNL1       -0.3794
     31 O          20.1368   70.8001   -5.9461 O.3     1  UNL1       -0.3775
     32 O          21.0735   74.6357   -7.5796 O.3     1  UNL1       -0.3792
     33 C          21.5448   72.2893   -7.2523 C.3     1  UNL1        0.1718
     34 C          20.5725   72.1492   -6.0762 C.3     1  UNL1        0.1968
     35 C          22.1228   73.7067   -7.2883 C.3     1  UNL1        0.1723
     36 C          21.2378   72.5890   -4.7661 C.3     1  UNL1        0.2706
     37 C          22.7206   74.0519   -5.9261 C.3     1  UNL1        0.1830
     38 H          21.5266   72.1353   -9.1986 H       1  UNL1        0.2105
     39 H          19.5328   70.7590   -5.1856 H       1  UNL1        0.2106
     40 H          20.5157   74.7294   -6.7889 H       1  UNL1        0.2106
     41 O          23.9780   75.7569   -6.9341 O.co2   1  UNL1       -0.5466
     42 O          22.8825   76.2774   -5.0037 O.co2   1  UNL1       -0.5466
     43 C          23.1815   75.4739   -5.8752 C.2     1  UNL1        0.0799
@<TRIPOS>UNITY_ATOM_ATTR
41 1
charge -1
@<TRIPOS>BOND
     1     1     4    1
     2     1    24    1
     3     1     2    1
     4     1     3    2
     5    25    28    1
     6    25    24    1
     7    25    26    1
     8    25    27    2
     9     6    11    1
    10     6    12    1
    11    29    36    1
    12    29    37    1
    13     7     9    1
    14     7    13    1
    15     8    10    1
    16     8    14    1
    17     4     5    1
    18    28    36    1
    19    30    33    1
    20    30    38    1
    21    31    34    1
    22    31    39    1
    23    32    35    1
    24    32    40    1
    25    41    43   ar
    26    15    19    2
    27    42    43   ar
    28    16    22    2
    29    17    12    1
    30    17    19   ar
    31    17    20   ar
    32    18    19   ar
    33    18    22   ar
    34    18    23    1
    35     9    10    1
    36     9    11    1
    37    10    12    1
    38    11     5    1
    39    33    34    1
    40    33    35    1
    41    34    36    1
    42    35    37    1
    43    37    43    1
    44    20    21   ar
    45    21    22   ar
@<TRIPOS>MOLECULE
UDP-glaA
 43 45 0 0 0
SMALL
GASTEIGER

@<TRIPOS>ATOM
      1 P          23.4651   73.5983   -4.2131 P.3     1  UNL1        0.2189
      2 O          22.7261   75.0216   -4.4266 O.3     1  UNL1       -0.4371
      3 O          24.9567   73.6753   -4.0670 O.2     1  UNL1       -0.5170
      4 O          22.9247   72.6910   -5.4380 O.3     1  UNL1       -0.3112
      5 C          21.5973   72.1970   -5.3808 C.3     1  UNL1        0.1811
      6 O          20.4760   70.3073   -6.3534 O.3     1  UNL1       -0.3308
      7 O          20.6893   71.7624   -8.9665 O.3     1  UNL1       -0.3794
      8 O          18.1048   72.2303   -8.2336 O.3     1  UNL1       -0.3779
      9 C          20.4660   72.2853   -7.6572 C.3     1  UNL1        0.1713
     10 C          19.0491   71.9940   -7.2099 C.3     1  UNL1        0.1895
     11 C          21.2864   71.4591   -6.6753 C.3     1  UNL1        0.1764
     12 C          19.1355   70.5276   -6.8222 C.3     1  UNL1        0.2383
     13 H          21.6183   71.9377   -9.1941 H       1  UNL1        0.2105
     14 H          18.1886   73.1621   -8.4996 H       1  UNL1        0.2106
     15 O          16.4277   69.8481   -7.2481 O.2     1  UNL1       -0.2464
     16 O          15.6877   69.2171   -2.7433 O.2     1  UNL1       -0.2670
     17 N          18.2129   70.1809   -5.7792 N.ar    1  UNL1       -0.2551
     18 N          16.0609   69.5348   -5.0046 N.ar    1  UNL1       -0.2743
     19 C          16.8739   69.8565   -6.0994 C.ar    1  UNL1        0.3323
     20 C          18.6376   70.1650   -4.4552 C.ar    1  UNL1        0.0869
     21 C          17.8503   69.8556   -3.4226 C.ar    1  UNL1        0.0795
     22 C          16.4377   69.5056   -3.6708 C.ar    1  UNL1        0.2626
     23 H          15.0940   69.2988   -5.2109 H       1  UNL1        0.1734
     24 O          22.6942   72.9780   -2.9340 O.3     1  UNL1       -0.2703
     25 P          22.8181   71.5335   -2.2194 P.3     1  UNL1        0.2208
     26 O          24.1664   70.9150   -2.8641 O.3     1  UNL1       -0.4371
     27 O          21.6027   70.6645   -2.3720 O.2     1  UNL1       -0.5170
     28 O          23.2120   71.8663   -0.6903 O.3     1  UNL1       -0.2858
     29 O          24.5508   70.8730    0.9892 O.3     1  UNL1       -0.3226
     30 O          21.1568   71.9768    3.1203 O.3     1  UNL1       -0.3794
     31 O          20.9211   70.8292    0.4495 O.3     1  UNL1       -0.3775
     32 O          23.6685   70.9949    3.7178 O.3     1  UNL1       -0.3792
     33 C          22.1812   72.0483    2.1325 C.3     1  UNL1        0.1718
     34 C          22.1230   70.8241    1.2126 C.3     1  UNL1        0.1968
     35 C          23.5411   72.1130    2.8331 C.3     1  UNL1        0.1723
     36 C          23.3226   70.8050    0.2571 C.3     1  UNL1        0.2706
     37 C          24.6577   72.0466    1.7934 C.3     1  UNL1        0.1830
     38 H          21.2331   72.7685    3.6799 H       1  UNL1        0.2105
     39 H          20.9335   70.0434   -0.1225 H       1  UNL1        0.2106
     40 H          23.8204   70.1956    3.1856 H       1  UNL1        0.2106
     41 O          26.3862   73.1979    2.8846 O.co2   1  UNL1       -0.5466
     42 O          26.6733   70.9599    2.5591 O.co2   1  UNL1       -0.5466
     43 C          26.0044   71.9762    2.4404 C.2     1  UNL1        0.0799
@<TRIPOS>UNITY_ATOM_ATTR
41 1
charge -1
@<TRIPOS>BOND
     1     1     4    1
     2     1    24    1
     3     1     2    1
     4     1     3    2
     5    25    28    1
     6    25    24    1
     7    25    26    1
     8    25    27    2
     9     6    11    1
    10     6    12    1
    11    29    36    1
    12    29    37    1
    13     7     9    1
    14     7    13    1
    15     8    10    1
    16     8    14    1
    17     4     5    1
    18    28    36    1
    19    30    33    1
    20    30    38    1
    21    31    34    1
    22    31    39    1
    23    32    35    1
    24    32    40    1
    25    41    43   ar
    26    15    19    2
    27    42    43   ar
    28    16    22    2
    29    17    12    1
    30    17    19   ar
    31    17    20   ar
    32    18    19   ar
    33    18    22   ar
    34    18    23    1
    35     9    10    1
    36     9    11    1
    37    10    12    1
    38    11     5    1
    39    33    34    1
    40    33    35    1
    41    34    36    1
    42    35    37    1
    43    37    43    1
    44    20    21   ar
    45    21    22   ar
@<TRIPOS>MOLECULE
UDP-glaA
 43 45 0 0 0
SMALL
GASTEIGER

@<TRIPOS>ATOM
      1 P          23.4274   72.0759   -3.4204 P.3     1  UNL1        0.2189
      2 O          24.1525   72.9887   -4.5422 O.3     1  UNL1       -0.4371
      3 O          24.1567   70.8140   -3.0629 O.2     1  UNL1       -0.5170
      4 O          21.9248   71.8830   -3.9866 O.3     1  UNL1       -0.3112
      5 C          21.2117   70.7111   -3.6298 C.3     1  UNL1        0.1811
      6 O          19.1740   71.6743   -4.4631 O.3     1  UNL1       -0.3308
      7 O          17.8191   70.3580   -2.1344 O.3     1  UNL1       -0.3794
      8 O          17.2282   68.6745   -4.1966 O.3     1  UNL1       -0.3779
      9 C          18.9092   69.8894   -2.9280 C.3     1  UNL1        0.1713
     10 C          18.4141   69.4370   -4.2855 C.3     1  UNL1        0.1895
     11 C          19.7770   71.0879   -3.2885 C.3     1  UNL1        0.1764
     12 C          18.2053   70.7600   -5.0025 C.3     1  UNL1        0.2383
     13 H          18.1883   70.6726   -1.2917 H       1  UNL1        0.2105
     14 H          17.4172   67.9040   -3.6336 H       1  UNL1        0.2106
     15 O          16.2317   69.8941   -6.8275 O.2     1  UNL1       -0.2464
     16 O          19.0770   70.3852  -10.4193 O.2     1  UNL1       -0.2670
     17 N          18.4028   70.6525   -6.4198 N.ar    1  UNL1       -0.2551
     18 N          17.6500   70.1387   -8.6148 N.ar    1  UNL1       -0.2743
     19 C          17.3470   70.2063   -7.2485 C.ar    1  UNL1        0.3323
     20 C          19.6326   70.9875   -6.9756 C.ar    1  UNL1        0.0869
     21 C          19.9057   70.9181   -8.2804 C.ar    1  UNL1        0.0795
     22 C          18.8578   70.4607   -9.2143 C.ar    1  UNL1        0.2626
     23 H          16.9060   69.8198   -9.2296 H       1  UNL1        0.1734
     24 O          23.2227   73.1067   -2.1913 O.3     1  UNL1       -0.2703
     25 P          23.1305   72.8518   -0.5979 P.3     1  UNL1        0.2208
     26 O          21.5391   72.8755   -0.3098 O.3     1  UNL1       -0.4371
     27 O          23.9246   73.8228    0.2282 O.2     1  UNL1       -0.5170
     28 O          23.5575   71.3076   -0.4054 O.3     1  UNL1       -0.2858
     29 O          24.4619   71.2837    1.7811 O.3     1  UNL1       -0.3226
     30 O          20.5250   72.4208    2.4794 O.3     1  UNL1       -0.3794
     31 O          21.1435   70.3449    0.5265 O.3     1  UNL1       -0.3775
     32 O          22.8504   72.2332    3.9583 O.3     1  UNL1       -0.3792
     33 C          21.7724   72.3180    1.7983 C.3     1  UNL1        0.1718
     34 C          22.0820   70.8540    1.4682 C.3     1  UNL1        0.1968
     35 C          22.8732   72.8979    2.6908 C.3     1  UNL1        0.1723
     36 C          23.4961   70.7146    0.8910 C.3     1  UNL1        0.2706
     37 C          24.2355   72.6684    2.0400 C.3     1  UNL1        0.1830
     38 H          20.3716   73.3619    2.6700 H       1  UNL1        0.2105
     39 H          21.3847   69.4215    0.3417 H       1  UNL1        0.2106
     40 H          23.2152   71.3392    3.8449 H       1  UNL1        0.2106
     41 O          24.9209   74.0423    3.8139 O.co2   1  UNL1       -0.5466
     42 O          26.4941   72.6729    2.8937 O.co2   1  UNL1       -0.5466
     43 C          25.3506   73.1031    2.9370 C.2     1  UNL1        0.0799
@<TRIPOS>UNITY_ATOM_ATTR
41 1
charge -1
@<TRIPOS>BOND
     1     1     4    1
     2     1    24    1
     3     1     2    1
     4     1     3    2
     5    25    28    1
     6    25    24    1
     7    25    26    1
     8    25    27    2
     9     6    11    1
    10     6    12    1
    11    29    36    1
    12    29    37    1
    13     7     9    1
    14     7    13    1
    15     8    10    1
    16     8    14    1
    17     4     5    1
    18    28    36    1
    19    30    33    1
    20    30    38    1
    21    31    34    1
    22    31    39    1
    23    32    35    1
    24    32    40    1
    25    41    43   ar
    26    15    19    2
    27    42    43   ar
    28    16    22    2
    29    17    12    1
    30    17    19   ar
    31    17    20   ar
    32    18    19   ar
    33    18    22   ar
    34    18    23    1
    35     9    10    1
    36     9    11    1
    37    10    12    1
    38    11     5    1
    39    33    34    1
    40    33    35    1
    41    34    36    1
    42    35    37    1
    43    37    43    1
    44    20    21   ar
    45    21    22   ar
@<TRIPOS>MOLECULE
UDP-glaA
 43 45 0 0 0
SMALL
GASTEIGER

@<TRIPOS>ATOM
      1 P          20.6869   72.1768   -1.2544 P.3     1  UNL1        0.2189
      2 O          20.0107   70.7262   -1.0179 O.3     1  UNL1       -0.4371
      3 O          19.7154   73.3047   -1.4444 O.2     1  UNL1       -0.5170
      4 O          21.7238   71.9298   -2.4708 O.3     1  UNL1       -0.3112
      5 C          21.8317   72.9189   -3.4803 C.3     1  UNL1        0.1811
      6 O          21.7033   71.0127   -4.9377 O.3     1  UNL1       -0.3308
      7 O          23.0620   72.7251   -6.9902 O.3     1  UNL1       -0.3794
      8 O          20.4513   72.8165   -7.7722 O.3     1  UNL1       -0.3779
      9 C          22.0970   73.0912   -6.0040 C.3     1  UNL1        0.1713
     10 C          20.7234   72.5954   -6.4038 C.3     1  UNL1        0.1895
     11 C          22.3769   72.2766   -4.7480 C.3     1  UNL1        0.1764
     12 C          20.8072   71.1189   -6.0562 C.3     1  UNL1        0.2383
     13 H          23.9298   73.0285   -6.6732 H       1  UNL1        0.2105
     14 H          20.5239   73.7729   -7.9343 H       1  UNL1        0.2106
     15 O          18.7359   70.5294   -7.8831 O.2     1  UNL1       -0.2464
     16 O          15.9613   69.0139   -4.5299 O.2     1  UNL1       -0.2670
     17 N          19.5337   70.5692   -5.6883 N.ar    1  UNL1       -0.2551
     18 N          17.3554   69.7756   -6.2121 N.ar    1  UNL1       -0.2743
     19 C          18.5617   70.3108   -6.6829 C.ar    1  UNL1        0.3323
     20 C          19.2578   70.2919   -4.3539 C.ar    1  UNL1        0.0869
     21 C          18.1030   69.7812   -3.9211 C.ar    1  UNL1        0.0795
     22 C          17.0347   69.4832   -4.8955 C.ar    1  UNL1        0.2626
     23 H          16.6417   69.5824   -6.9095 H       1  UNL1        0.1734
     24 O          21.6612   72.3356    0.0265 O.3     1  UNL1       -0.2703
     25 P          22.5320   71.2423    0.8383 P.3     1  UNL1        0.2208
     26 O          23.7981   70.9805   -0.1337 O.3     1  UNL1       -0.4371
     27 O          21.7707   70.0028    1.2122 O.2     1  UNL1       -0.5170
     28 O          23.1412   72.0543    2.0927 O.3     1  UNL1       -0.2858
     29 O          22.4319   73.6740    3.6652 O.3     1  UNL1       -0.3226
     30 O          26.0961   75.2022    2.4333 O.3     1  UNL1       -0.3794
     31 O          24.2619   74.0133    0.5024 O.3     1  UNL1       -0.3775
     32 O          24.2361   75.7853    4.3904 O.3     1  UNL1       -0.3792
     33 C          25.1143   74.2255    2.7685 C.3     1  UNL1        0.1718
     34 C          23.9018   74.3456    1.8391 C.3     1  UNL1        0.1968
     35 C          24.6827   74.4358    4.2224 C.3     1  UNL1        0.1723
     36 C          22.7710   73.4169    2.2985 C.3     1  UNL1        0.2706
     37 C          23.5302   73.4915    4.5574 C.3     1  UNL1        0.1830
     38 H          26.8421   75.0908    3.0470 H       1  UNL1        0.2105
     39 H          23.4631   74.0942   -0.0454 H       1  UNL1        0.2106
     40 H          23.3650   75.8771    3.9687 H       1  UNL1        0.2106
     41 O          23.9758   74.1659    6.7597 O.co2   1  UNL1       -0.5466
     42 O          21.8212   73.6152    6.2585 O.co2   1  UNL1       -0.5466
     43 C          22.9901   73.7517    5.9276 C.2     1  UNL1        0.0799
@<TRIPOS>UNITY_ATOM_ATTR
41 1
charge -1
@<TRIPOS>BOND
     1     1     4    1
     2     1    24    1
     3     1     2    1
     4     1     3    2
     5    25    28    1
     6    25    24    1
     7    25    26    1
     8    25    27    2
     9     6    11    1
    10     6    12    1
    11    29    36    1
    12    29    37    1
    13     7     9    1
    14     7    13    1
    15     8    10    1
    16     8    14    1
    17     4     5    1
    18    28    36    1
    19    30    33    1
    20    30    38    1
    21    31    34    1
    22    31    39    1
    23    32    35    1
    24    32    40    1
    25    41    43   ar
    26    15    19    2
    27    42    43   ar
    28    16    22    2
    29    17    12    1
    30    17    19   ar
    31    17    20   ar
    32    18    19   ar
    33    18    22   ar
    34    18    23    1
    35     9    10    1
    36     9    11    1
    37    10    12    1
    38    11     5    1
    39    33    34    1
    40    33    35    1
    41    34    36    1
    42    35    37    1
    43    37    43    1
    44    20    21   ar
    45    21    22   ar
@<TRIPOS>MOLECULE
UDP-glaA
 43 45 0 0 0
SMALL
GASTEIGER

@<TRIPOS>ATOM
      1 P          20.0891   72.0626   -1.5791 P.3     1  UNL1        0.2189
      2 O          20.3985   70.6761   -0.8049 O.3     1  UNL1       -0.4371
      3 O          18.9188   72.8370   -1.0474 O.2     1  UNL1       -0.5170
      4 O          19.9966   71.6283   -3.1342 O.3     1  UNL1       -0.3112
      5 C          19.2918   70.4441   -3.4660 C.3     1  UNL1        0.1811
      6 O          17.5850   71.4385   -4.8344 O.3     1  UNL1       -0.3308
      7 O          15.6189   69.9026   -3.1710 O.3     1  UNL1       -0.3794
      8 O          15.7917   68.3922   -5.4348 O.3     1  UNL1       -0.3779
      9 C          16.9248   69.5237   -3.6054 C.3     1  UNL1        0.1713
     10 C          16.9088   69.1808   -5.0801 C.3     1  UNL1        0.1895
     11 C          17.8079   70.7643   -3.5762 C.3     1  UNL1        0.1764
     12 C          16.8805   70.5566   -5.7239 C.3     1  UNL1        0.2383
     13 H          15.6860   70.1502   -2.2331 H       1  UNL1        0.2105
     14 H          15.8256   67.5798   -4.9010 H       1  UNL1        0.2106
     15 O          15.5136   70.5420   -8.1951 O.2     1  UNL1       -0.2464
     16 O          19.4541   70.6267  -10.5834 O.2     1  UNL1       -0.2670
     17 N          17.5239   70.5750   -7.0065 N.ar    1  UNL1       -0.2551
     18 N          17.4767   70.5837   -9.3827 N.ar    1  UNL1       -0.2743
     19 C          16.7457   70.5647   -8.1876 C.ar    1  UNL1        0.3323
     20 C          18.9119   70.6027   -7.0853 C.ar    1  UNL1        0.0869
     21 C          19.5941   70.6210   -8.2325 C.ar    1  UNL1        0.0795
     22 C          18.8567   70.6111   -9.5115 C.ar    1  UNL1        0.2626
     23 H          16.9379   70.5761  -10.2446 H       1  UNL1        0.1734
     24 O          21.5034   72.8431   -1.5036 O.3     1  UNL1       -0.2703
     25 P          22.9135   72.4202   -0.8363 P.3     1  UNL1        0.2208
     26 O          23.8633   73.6945   -1.1367 O.3     1  UNL1       -0.4371
     27 O          23.4595   71.1103   -1.3282 O.2     1  UNL1       -0.5170
     28 O          22.6463   72.4759    0.7541 O.3     1  UNL1       -0.2858
     29 O          23.3006   74.5249    1.7405 O.3     1  UNL1       -0.3226
     30 O          22.4007   72.2039    5.0695 O.3     1  UNL1       -0.3794
     31 O          23.8293   71.0521    2.8026 O.3     1  UNL1       -0.3775
     32 O          23.0125   74.8522    4.5774 O.3     1  UNL1       -0.3792
     33 C          22.3070   72.7002    3.7371 C.3     1  UNL1        0.1718
     34 C          23.6152   72.4484    2.9798 C.3     1  UNL1        0.1968
     35 C          22.0115   74.2017    3.7876 C.3     1  UNL1        0.1723
     36 C          23.5869   73.1289    1.6056 C.3     1  UNL1        0.2706
     37 C          22.0482   74.7797    2.3746 C.3     1  UNL1        0.1830
     38 H          21.5537   72.3866    5.5109 H       1  UNL1        0.2105
     39 H          24.6612   70.9428    2.3119 H       1  UNL1        0.2106
     40 H          23.8372   74.8866    4.0638 H       1  UNL1        0.2106
     41 O          20.7388   76.6333    1.7800 O.co2   1  UNL1       -0.5466
     42 O          22.6914   77.0515    2.8797 O.co2   1  UNL1       -0.5466
     43 C          21.8931   76.2673    2.3877 C.2     1  UNL1        0.0799
@<TRIPOS>UNITY_ATOM_ATTR
41 1
charge -1
@<TRIPOS>BOND
     1     1     4    1
     2     1    24    1
     3     1     2    1
     4     1     3    2
     5    25    28    1
     6    25    24    1
     7    25    26    1
     8    25    27    2
     9     6    11    1
    10     6    12    1
    11    29    36    1
    12    29    37    1
    13     7     9    1
    14     7    13    1
    15     8    10    1
    16     8    14    1
    17     4     5    1
    18    28    36    1
    19    30    33    1
    20    30    38    1
    21    31    34    1
    22    31    39    1
    23    32    35    1
    24    32    40    1
    25    41    43   ar
    26    15    19    2
    27    42    43   ar
    28    16    22    2
    29    17    12    1
    30    17    19   ar
    31    17    20   ar
    32    18    19   ar
    33    18    22   ar
    34    18    23    1
    35     9    10    1
    36     9    11    1
    37    10    12    1
    38    11     5    1
    39    33    34    1
    40    33    35    1
    41    34    36    1
    42    35    37    1
    43    37    43    1
    44    20    21   ar
    45    21    22   ar
@<TRIPOS>MOLECULE
UDP-glaA
 43 45 0 0 0
SMALL
GASTEIGER

@<TRIPOS>ATOM
      1 P          20.9252   71.3810   -1.7052 P.3     1  UNL1        0.2189
      2 O          21.9252   70.5624   -2.6785 O.3     1  UNL1       -0.4371
      3 O          20.5909   70.6902   -0.4155 O.2     1  UNL1       -0.5170
      4 O          19.6673   71.7438   -2.6548 O.3     1  UNL1       -0.3112
      5 C          19.1329   70.7293   -3.4882 C.3     1  UNL1        0.1811
      6 O          17.4184   71.5608   -4.9521 O.3     1  UNL1       -0.3308
      7 O          15.4870   70.0012   -3.2702 O.3     1  UNL1       -0.3794
      8 O          15.8104   68.3949   -5.4499 O.3     1  UNL1       -0.3779
      9 C          16.8242   69.6743   -3.6481 C.3     1  UNL1        0.1713
     10 C          16.8722   69.2601   -5.1037 C.3     1  UNL1        0.1895
     11 C          17.6381   70.9616   -3.6561 C.3     1  UNL1        0.1764
     12 C          16.7900   70.5994   -5.8160 C.3     1  UNL1        0.2383
     13 H          15.5117   70.2972   -2.3443 H       1  UNL1        0.2105
     14 H          15.8714   67.6124   -4.8754 H       1  UNL1        0.2106
     15 O          15.4958   70.5845   -8.3260 O.2     1  UNL1       -0.2464
     16 O          19.5052   70.5660  -10.5981 O.2     1  UNL1       -0.2670
     17 N          17.4708   70.5912   -7.0792 N.ar    1  UNL1       -0.2551
     18 N          17.4932   70.5748   -9.4558 N.ar    1  UNL1       -0.2743
     19 C          16.7274   70.5832   -8.2825 C.ar    1  UNL1        0.3323
     20 C          18.8608   70.5909   -7.1175 C.ar    1  UNL1        0.0869
     21 C          19.5764   70.5833   -8.2443 C.ar    1  UNL1        0.0795
     22 C          18.8767   70.5738   -9.5442 C.ar    1  UNL1        0.2626
     23 H          16.9798   70.5683  -10.3330 H       1  UNL1        0.1734
     24 O          21.6724   72.8048   -1.5326 O.3     1  UNL1       -0.2703
     25 P          21.6362   73.8821   -0.3281 P.3     1  UNL1        0.2208
     26 O          20.1475   73.7087    0.2801 O.3     1  UNL1       -0.4371
     27 O          21.9759   75.2843   -0.7455 O.2     1  UNL1       -0.5170
     28 O          22.6125   73.2672    0.8000 O.3     1  UNL1       -0.2858
     29 O          24.8513   73.9335    1.1784 O.3     1  UNL1       -0.3226
     30 O          24.8406   70.0435    2.6440 O.3     1  UNL1       -0.3794
     31 O          23.4257   70.7025    0.1803 O.3     1  UNL1       -0.3775
     32 O          26.5911   72.1803    2.6407 O.3     1  UNL1       -0.3792
     33 C          24.3455   71.3438    2.3365 C.3     1  UNL1        0.1718
     34 C          24.3515   71.5735    0.8214 C.3     1  UNL1        0.1968
     35 C          25.2285   72.3862    3.0279 C.3     1  UNL1        0.1723
     36 C          23.9844   73.0255    0.4907 C.3     1  UNL1        0.2706
     37 C          24.8016   73.7876    2.5968 C.3     1  UNL1        0.1830
     38 H          24.8211   69.9433    3.6110 H       1  UNL1        0.2105
     39 H          23.4577   70.8905   -0.7728 H       1  UNL1        0.2106
     40 H          26.7013   72.4857    1.7243 H       1  UNL1        0.2106
     41 O          26.1632   74.4803    4.3773 O.co2   1  UNL1       -0.5466
     42 O          26.0338   75.8639    2.5701 O.co2   1  UNL1       -0.5466
     43 C          25.7195   74.8327    3.1466 C.2     1  UNL1        0.0799
@<TRIPOS>UNITY_ATOM_ATTR
41 1
charge -1
@<TRIPOS>BOND
     1     1     4    1
     2     1    24    1
     3     1     2    1
     4     1     3    2
     5    25    28    1
     6    25    24    1
     7    25    26    1
     8    25    27    2
     9     6    11    1
    10     6    12    1
    11    29    36    1
    12    29    37    1
    13     7     9    1
    14     7    13    1
    15     8    10    1
    16     8    14    1
    17     4     5    1
    18    28    36    1
    19    30    33    1
    20    30    38    1
    21    31    34    1
    22    31    39    1
    23    32    35    1
    24    32    40    1
    25    41    43   ar
    26    15    19    2
    27    42    43   ar
    28    16    22    2
    29    17    12    1
    30    17    19   ar
    31    17    20   ar
    32    18    19   ar
    33    18    22   ar
    34    18    23    1
    35     9    10    1
    36     9    11    1
    37    10    12    1
    38    11     5    1
    39    33    34    1
    40    33    35    1
    41    34    36    1
    42    35    37    1
    43    37    43    1
    44    20    21   ar
    45    21    22   ar
@<TRIPOS>MOLECULE
UDP-glaA
 43 45 0 0 0
SMALL
GASTEIGER

@<TRIPOS>ATOM
      1 P          21.9146   72.4515   -5.7069 P.3     1  UNL1        0.2189
      2 O          21.2670   73.8743   -5.2901 O.3     1  UNL1       -0.4371
      3 O          23.1201   72.5410   -6.5962 O.2     1  UNL1       -0.5170
      4 O          20.6649   71.6130   -6.2991 O.3     1  UNL1       -0.3112
      5 C          20.1388   71.9827   -7.5623 C.3     1  UNL1        0.1811
      6 O          18.9213   69.9526   -7.1494 O.3     1  UNL1       -0.3308
      7 O          18.1465   70.0489  -10.0445 O.3     1  UNL1       -0.3794
      8 O          15.9149   70.9998   -8.7990 O.3     1  UNL1       -0.3779
      9 C          18.3217   71.1225   -9.1202 C.3     1  UNL1        0.1713
     10 C          17.1584   71.1775   -8.1526 C.3     1  UNL1        0.1895
     11 C          19.4835   70.7669   -8.2019 C.3     1  UNL1        0.1764
     12 C          17.4878   70.0425   -7.1980 C.3     1  UNL1        0.2383
     13 H          18.9320   70.0286  -10.6174 H       1  UNL1        0.2105
     14 H          15.8297   71.7012   -9.4675 H       1  UNL1        0.2106
     15 O          16.3072   68.0663   -5.5621 O.2     1  UNL1       -0.2464
     16 O          15.6086   71.0631   -2.1315 O.2     1  UNL1       -0.2670
     17 N          16.9893   70.2784   -5.8731 N.ar    1  UNL1       -0.2551
     18 N          15.9596   69.5600   -3.8551 N.ar    1  UNL1       -0.2743
     19 C          16.4137   69.2175   -5.1356 C.ar    1  UNL1        0.3323
     20 C          17.0732   71.5501   -5.3172 C.ar    1  UNL1        0.0869
     21 C          16.6361   71.8606   -4.0947 C.ar    1  UNL1        0.0795
     22 C          16.0209   70.8103   -3.2593 C.ar    1  UNL1        0.2626
     23 H          15.5415   68.8132   -3.3069 H       1  UNL1        0.1734
     24 O          22.1828   71.7430   -4.2781 O.3     1  UNL1       -0.2703
     25 P          23.4216   71.8700   -3.2476 P.3     1  UNL1        0.2208
     26 O          24.1610   73.2282   -3.7218 O.3     1  UNL1       -0.4371
     27 O          24.3127   70.6618   -3.2037 O.2     1  UNL1       -0.5170
     28 O          22.7406   72.2478   -1.8342 O.3     1  UNL1       -0.2858
     29 O          23.3012   70.8210   -0.0317 O.3     1  UNL1       -0.3226
     30 O          20.1755   73.0503    1.5617 O.3     1  UNL1       -0.3794
     31 O          20.0602   72.0935   -1.1909 O.3     1  UNL1       -0.3775
     32 O          22.0198   71.2231    2.5050 O.3     1  UNL1       -0.3792
     33 C          21.3264   72.7586    0.7740 C.3     1  UNL1        0.1718
     34 C          21.0160   71.6475   -0.2347 C.3     1  UNL1        0.1968
     35 C          22.4635   72.3215    1.7015 C.3     1  UNL1        0.1723
     36 C          22.2896   71.2079   -0.9676 C.3     1  UNL1        0.2706
     37 C          23.6603   71.8685    0.8680 C.3     1  UNL1        0.1830
     38 H          20.4182   73.7553    2.1860 H       1  UNL1        0.2105
     39 H          19.9031   71.3622   -1.8118 H       1  UNL1        0.2106
     40 H          21.9783   70.4286    1.9463 H       1  UNL1        0.2106
     41 O          24.6479   69.9622    1.8136 O.co2   1  UNL1       -0.5466
     42 O          25.6134   71.9731    2.2837 O.co2   1  UNL1       -0.5466
     43 C          24.7478   71.3108    1.7300 C.2     1  UNL1        0.0799
@<TRIPOS>UNITY_ATOM_ATTR
41 1
charge -1
@<TRIPOS>BOND
     1     1     4    1
     2     1    24    1
     3     1     2    1
     4     1     3    2
     5    25    28    1
     6    25    24    1
     7    25    26    1
     8    25    27    2
     9     6    11    1
    10     6    12    1
    11    29    36    1
    12    29    37    1
    13     7     9    1
    14     7    13    1
    15     8    10    1
    16     8    14    1
    17     4     5    1
    18    28    36    1
    19    30    33    1
    20    30    38    1
    21    31    34    1
    22    31    39    1
    23    32    35    1
    24    32    40    1
    25    41    43   ar
    26    15    19    2
    27    42    43   ar
    28    16    22    2
    29    17    12    1
    30    17    19   ar
    31    17    20   ar
    32    18    19   ar
    33    18    22   ar
    34    18    23    1
    35     9    10    1
    36     9    11    1
    37    10    12    1
    38    11     5    1
    39    33    34    1
    40    33    35    1
    41    34    36    1
    42    35    37    1
    43    37    43    1
    44    20    21   ar
    45    21    22   ar
@<TRIPOS>MOLECULE
UDP-glaA
 43 45 0 0 0
SMALL
GASTEIGER

@<TRIPOS>ATOM
      1 P          23.2980   72.3665   -3.5514 P.3     1  UNL1        0.2189
      2 O          24.1123   70.9889   -3.3136 O.3     1  UNL1       -0.4371
      3 O          24.1097   73.4903   -4.1261 O.2     1  UNL1       -0.5170
      4 O          22.6038   72.6608   -2.1207 O.3     1  UNL1       -0.3112
      5 C          23.4264   72.7194   -0.9678 C.3     1  UNL1        0.1811
      6 O          24.4344   71.2302    0.6261 O.3     1  UNL1       -0.3308
      7 O          21.6669   70.1880    1.1218 O.3     1  UNL1       -0.3794
      8 O          22.0645   71.8543    3.2433 O.3     1  UNL1       -0.3779
      9 C          22.0925   71.5201    0.8354 C.3     1  UNL1        0.1713
     10 C          22.7652   72.1286    2.0477 C.3     1  UNL1        0.1895
     11 C          23.2417   71.4420   -0.1611 C.3     1  UNL1        0.1764
     12 C          24.1354   71.4736    2.0105 C.3     1  UNL1        0.2383
     13 H          21.2784   69.8263    0.3070 H       1  UNL1        0.2105
     14 H          21.1649   72.2106    3.1437 H       1  UNL1        0.2106
     15 O          26.8278   70.6918    2.3502 O.2     1  UNL1       -0.2464
     16 O          27.9735   74.7689    4.1676 O.2     1  UNL1       -0.2670
     17 N          25.1585   72.3107    2.5692 N.ar    1  UNL1       -0.2551
     18 N          27.3964   72.7224    3.2554 N.ar    1  UNL1       -0.2743
     19 C          26.4797   71.8219    2.6970 C.ar    1  UNL1        0.3323
     20 C          24.8484   73.6011    2.9840 C.ar    1  UNL1        0.0869
     21 C          25.7339   74.4477    3.5140 C.ar    1  UNL1        0.0795
     22 C          27.1353   74.0149    3.6831 C.ar    1  UNL1        0.2626
     23 H          28.3523   72.3922    3.3575 H       1  UNL1        0.1734
     24 O          22.0524   71.8972   -4.4697 O.3     1  UNL1       -0.2703
     25 P          21.2682   72.6571   -5.6614 P.3     1  UNL1        0.2208
     26 O          21.7470   71.8625   -6.9864 O.3     1  UNL1       -0.4371
     27 O          21.5054   74.1394   -5.7078 O.2     1  UNL1       -0.5170
     28 O          19.7227   72.2350   -5.4683 O.3     1  UNL1       -0.2858
     29 O          19.0399   70.0030   -5.0791 O.3     1  UNL1       -0.3226
     30 O          15.5671   71.7276   -6.5772 O.3     1  UNL1       -0.3794
     31 O          18.1623   72.3709   -7.7419 O.3     1  UNL1       -0.3775
     32 O          16.2734   69.3197   -5.4225 O.3     1  UNL1       -0.3792
     33 C          16.7999   71.6345   -5.8689 C.3     1  UNL1        0.1718
     34 C          17.9448   71.2989   -6.8306 C.3     1  UNL1        0.1968
     35 C          16.6764   70.5444   -4.8008 C.3     1  UNL1        0.1723
     36 C          19.2416   71.0279   -6.0578 C.3     1  UNL1        0.2706
     37 C          18.0298   70.3310   -4.1264 C.3     1  UNL1        0.1830
     38 H          14.8723   71.9384   -5.9303 H       1  UNL1        0.2105
     39 H          18.8997   72.1175   -8.3223 H       1  UNL1        0.2106
     40 H          17.0322   68.9563   -5.9097 H       1  UNL1        0.2106
     41 O          18.1521   69.6216   -1.8936 O.co2   1  UNL1       -0.5466
     42 O          17.8251   68.0145   -3.4770 O.co2   1  UNL1       -0.5466
     43 C          17.9880   69.1854   -3.1657 C.2     1  UNL1        0.0799
@<TRIPOS>UNITY_ATOM_ATTR
41 1
charge -1
@<TRIPOS>BOND
     1     1     4    1
     2     1    24    1
     3     1     2    1
     4     1     3    2
     5    25    28    1
     6    25    24    1
     7    25    26    1
     8    25    27    2
     9     6    11    1
    10     6    12    1
    11    29    36    1
    12    29    37    1
    13     7     9    1
    14     7    13    1
    15     8    10    1
    16     8    14    1
    17     4     5    1
    18    28    36    1
    19    30    33    1
    20    30    38    1
    21    31    34    1
    22    31    39    1
    23    32    35    1
    24    32    40    1
    25    41    43   ar
    26    15    19    2
    27    42    43   ar
    28    16    22    2
    29    17    12    1
    30    17    19   ar
    31    17    20   ar
    32    18    19   ar
    33    18    22   ar
    34    18    23    1
    35     9    10    1
    36     9    11    1
    37    10    12    1
    38    11     5    1
    39    33    34    1
    40    33    35    1
    41    34    36    1
    42    35    37    1
    43    37    43    1
    44    20    21   ar
    45    21    22   ar
@<TRIPOS>MOLECULE
UDP-glaA
 43 45 0 0 0
SMALL
GASTEIGER

@<TRIPOS>ATOM
      1 P          22.5562   73.1579   -4.4163 P.3     1  UNL1        0.2189
      2 O          22.8963   71.9277   -3.4222 O.3     1  UNL1       -0.4371
      3 O          23.7520   73.9005   -4.9366 O.2     1  UNL1       -0.5170
      4 O          21.4845   74.0426   -3.5891 O.3     1  UNL1       -0.3112
      5 C          21.7721   74.3676   -2.2397 C.3     1  UNL1        0.1811
      6 O          20.9899   72.6863   -0.7114 O.3     1  UNL1       -0.3308
      7 O          18.9309   74.6902    0.1464 O.3     1  UNL1       -0.3794
      8 O          20.7899   74.8585    2.1342 O.3     1  UNL1       -0.3779
      9 C          20.2877   74.9001   -0.2442 C.3     1  UNL1        0.1713
     10 C          21.2264   74.4487    0.8547 C.3     1  UNL1        0.1895
     11 C          20.6116   73.9189   -1.3631 C.3     1  UNL1        0.1764
     12 C          21.2063   72.9389    0.6867 C.3     1  UNL1        0.2383
     13 H          18.3694   74.9565   -0.6015 H       1  UNL1        0.2105
     14 H          20.7256   75.8290    2.1246 H       1  UNL1        0.2106
     15 O          21.5733   70.1588    1.0210 O.2     1  UNL1       -0.2464
     16 O          25.9882   70.7015    2.2262 O.2     1  UNL1       -0.2670
     17 N          22.4410   72.3264    1.0865 N.ar    1  UNL1       -0.2551
     18 N          23.7714   70.4309    1.6214 N.ar    1  UNL1       -0.2743
     19 C          22.5197   70.9210    1.2262 C.ar    1  UNL1        0.3323
     20 C          23.5578   73.1163    1.3359 C.ar    1  UNL1        0.0869
     21 C          24.7443   72.6338    1.7116 C.ar    1  UNL1        0.0795
     22 C          24.9106   71.1767    1.8813 C.ar    1  UNL1        0.2626
     23 H          23.8511   69.4233    1.7288 H       1  UNL1        0.1734
     24 O          21.6473   72.4606   -5.5578 O.3     1  UNL1       -0.2703
     25 P          21.0114   73.0580   -6.9185 P.3     1  UNL1        0.2208
     26 O          21.8137   72.2693   -8.0805 O.3     1  UNL1       -0.4371
     27 O          21.0789   74.5546   -7.0247 O.2     1  UNL1       -0.5170
     28 O          19.5165   72.4527   -6.9713 O.3     1  UNL1       -0.2858
     29 O          18.8853   70.5097   -5.7772 O.3     1  UNL1       -0.3226
     30 O          15.9848   70.6859   -8.7495 O.3     1  UNL1       -0.3794
     31 O          18.7719   71.2887   -9.3616 O.3     1  UNL1       -0.3775
     32 O          16.4278   69.1964   -6.4659 O.3     1  UNL1       -0.3792
     33 C          16.9248   71.1562   -7.7876 C.3     1  UNL1        0.1718
     34 C          18.3382   70.6856   -8.1470 C.3     1  UNL1        0.1968
     35 C          16.5302   70.6229   -6.4076 C.3     1  UNL1        0.1723
     36 C          19.3288   71.0394   -7.0309 C.3     1  UNL1        0.2706
     37 C          17.6026   70.9973   -5.3869 C.3     1  UNL1        0.1830
     38 H          15.1061   71.0046   -8.4813 H       1  UNL1        0.2105
     39 H          19.6719   70.9693   -9.5427 H       1  UNL1        0.2106
     40 H          17.3246   68.8239   -6.5113 H       1  UNL1        0.2106
     41 O          16.4973   71.1782   -3.3254 O.co2   1  UNL1       -0.5466
     42 O          17.7719   69.3180   -3.6603 O.co2   1  UNL1       -0.5466
     43 C          17.3233   70.3861   -4.0507 C.2     1  UNL1        0.0799
@<TRIPOS>UNITY_ATOM_ATTR
41 1
charge -1
@<TRIPOS>BOND
     1     1     4    1
     2     1    24    1
     3     1     2    1
     4     1     3    2
     5    25    28    1
     6    25    24    1
     7    25    26    1
     8    25    27    2
     9     6    11    1
    10     6    12    1
    11    29    36    1
    12    29    37    1
    13     7     9    1
    14     7    13    1
    15     8    10    1
    16     8    14    1
    17     4     5    1
    18    28    36    1
    19    30    33    1
    20    30    38    1
    21    31    34    1
    22    31    39    1
    23    32    35    1
    24    32    40    1
    25    41    43   ar
    26    15    19    2
    27    42    43   ar
    28    16    22    2
    29    17    12    1
    30    17    19   ar
    31    17    20   ar
    32    18    19   ar
    33    18    22   ar
    34    18    23    1
    35     9    10    1
    36     9    11    1
    37    10    12    1
    38    11     5    1
    39    33    34    1
    40    33    35    1
    41    34    36    1
    42    35    37    1
    43    37    43    1
    44    20    21   ar
    45    21    22   ar
@<TRIPOS>MOLECULE
UDP-glaA
 43 45 0 0 0
SMALL
GASTEIGER

@<TRIPOS>ATOM
      1 P          23.5931   72.3559   -3.3587 P.3     1  UNL1        0.2189
      2 O          24.1745   70.8781   -3.0497 O.3     1  UNL1       -0.4371
      3 O          24.6265   73.3762   -3.7371 O.2     1  UNL1       -0.5170
      4 O          22.7045   72.7059   -2.0536 O.3     1  UNL1       -0.3112
      5 C          23.3601   72.8414   -0.8042 C.3     1  UNL1        0.1811
      6 O          24.4557   71.3115    0.6903 O.3     1  UNL1       -0.3308
      7 O          21.7224   70.2366    1.2943 O.3     1  UNL1       -0.3794
      8 O          22.2195   71.8409    3.4426 O.3     1  UNL1       -0.3779
      9 C          22.1261   71.5795    1.0272 C.3     1  UNL1        0.1713
     10 C          22.8567   72.1556    2.2218 C.3     1  UNL1        0.1895
     11 C          23.2233   71.5391   -0.0283 C.3     1  UNL1        0.1764
     12 C          24.2266   71.5112    2.0949 C.3     1  UNL1        0.2383
     13 H          21.2947   69.8971    0.4897 H       1  UNL1        0.2105
     14 H          21.3141   72.1940    3.3997 H       1  UNL1        0.2106
     15 O          26.9103   70.6874    2.4028 O.2     1  UNL1       -0.2464
     16 O          28.1545   74.7679    4.1464 O.2     1  UNL1       -0.2670
     17 N          25.2726   72.3377    2.6260 N.ar    1  UNL1       -0.2551
     18 N          27.5279   72.7197    3.2713 N.ar    1  UNL1       -0.2743
     19 C          26.5871   71.8279    2.7397 C.ar    1  UNL1        0.3323
     20 C          24.9913   73.6387    3.0281 C.ar    1  UNL1        0.0869
     21 C          25.8995   74.4768    3.5326 C.ar    1  UNL1        0.0795
     22 C          27.2958   74.0221    3.6854 C.ar    1  UNL1        0.2626
     23 H          28.4795   72.3744    3.3628 H       1  UNL1        0.1734
     24 O          22.4761   72.0756   -4.4940 O.3     1  UNL1       -0.2703
     25 P          21.9362   73.0037   -5.7022 P.3     1  UNL1        0.2208
     26 O          22.8231   72.5209   -6.9658 O.3     1  UNL1       -0.4371
     27 O          22.0043   74.4781   -5.4242 O.2     1  UNL1       -0.5170
     28 O          20.4517   72.4513   -6.0103 O.3     1  UNL1       -0.2858
     29 O          19.3889   70.3857   -5.5594 O.3     1  UNL1       -0.3226
     30 O          17.7994   71.3921   -9.2661 O.3     1  UNL1       -0.3794
     31 O          20.6251   71.8352   -8.6960 O.3     1  UNL1       -0.3775
     32 O          17.3386   69.4630   -7.3436 O.3     1  UNL1       -0.3792
     33 C          18.3243   71.5818   -7.9551 C.3     1  UNL1        0.1718
     34 C          19.7618   71.0569   -7.8739 C.3     1  UNL1        0.1968
     35 C          17.4373   70.8368   -6.9539 C.3     1  UNL1        0.1723
     36 C          20.2745   71.0987   -6.4290 C.3     1  UNL1        0.2706
     37 C          18.0616   70.9091   -5.5621 C.3     1  UNL1        0.1830
     38 H          16.8896   71.7356   -9.2704 H       1  UNL1        0.2105
     39 H          21.5224   71.4726   -8.6050 H       1  UNL1        0.2106
     40 H          18.1817   69.0233   -7.1415 H       1  UNL1        0.2106
     41 O          16.3601   70.8375   -3.9485 O.co2   1  UNL1       -0.5466
     42 O          17.4820   68.8963   -4.3611 O.co2   1  UNL1       -0.5466
     43 C          17.2965   70.0854   -4.5756 C.2     1  UNL1        0.0799
@<TRIPOS>UNITY_ATOM_ATTR
41 1
charge -1
@<TRIPOS>BOND
     1     1     4    1
     2     1    24    1
     3     1     2    1
     4     1     3    2
     5    25    28    1
     6    25    24    1
     7    25    26    1
     8    25    27    2
     9     6    11    1
    10     6    12    1
    11    29    36    1
    12    29    37    1
    13     7     9    1
    14     7    13    1
    15     8    10    1
    16     8    14    1
    17     4     5    1
    18    28    36    1
    19    30    33    1
    20    30    38    1
    21    31    34    1
    22    31    39    1
    23    32    35    1
    24    32    40    1
    25    41    43   ar
    26    15    19    2
    27    42    43   ar
    28    16    22    2
    29    17    12    1
    30    17    19   ar
    31    17    20   ar
    32    18    19   ar
    33    18    22   ar
    34    18    23    1
    35     9    10    1
    36     9    11    1
    37    10    12    1
    38    11     5    1
    39    33    34    1
    40    33    35    1
    41    34    36    1
    42    35    37    1
    43    37    43    1
    44    20    21   ar
    45    21    22   ar
@<TRIPOS>MOLECULE
UDP-glaA
 43 45 0 0 0
SMALL
GASTEIGER

@<TRIPOS>ATOM
      1 P          21.7862   72.4371   -5.7818 P.3     1  UNL1        0.2189
      2 O          21.0416   73.8547   -5.5506 O.3     1  UNL1       -0.4371
      3 O          23.2791   72.4746   -5.6336 O.2     1  UNL1       -0.5170
      4 O          21.2347   71.9368   -7.2175 O.3     1  UNL1       -0.3112
      5 C          19.8636   72.1298   -7.5212 C.3     1  UNL1        0.1811
      6 O          18.7256   70.0863   -6.9703 O.3     1  UNL1       -0.3308
      7 O          18.0592   69.8901   -9.8872 O.3     1  UNL1       -0.3794
      8 O          15.7400   70.8358   -8.8089 O.3     1  UNL1       -0.3779
      9 C          18.1492   71.0480   -9.0573 C.3     1  UNL1        0.1713
     10 C          16.9482   71.1304   -8.1388 C.3     1  UNL1        0.1895
     11 C          19.2899   70.8318   -8.0716 C.3     1  UNL1        0.1764
     12 C          17.2924   70.1011   -7.0758 C.3     1  UNL1        0.2383
     13 H          18.8663   69.8582  -10.4287 H       1  UNL1        0.2105
     14 H          15.6485   71.4709   -9.5400 H       1  UNL1        0.2106
     15 O          16.6105   68.2006   -5.1013 O.2     1  UNL1       -0.2464
     16 O          15.1503   71.4692   -2.1991 O.2     1  UNL1       -0.2670
     17 N          16.7330   70.4275   -5.7952 N.ar    1  UNL1       -0.2551
     18 N          15.8834   69.8295   -3.6576 N.ar    1  UNL1       -0.2743
     19 C          16.4252   69.3979   -4.8755 C.ar    1  UNL1        0.3323
     20 C          16.4945   71.7560   -5.4613 C.ar    1  UNL1        0.0869
     21 C          15.9778   72.1515   -4.2958 C.ar    1  UNL1        0.0795
     22 C          15.6277   71.1387   -3.2802 C.ar    1  UNL1        0.2626
     23 H          15.6538   69.1064   -2.9812 H       1  UNL1        0.1734
     24 O          21.0305   71.4569   -4.7410 O.3     1  UNL1       -0.2703
     25 P          20.6121   71.6722   -3.1946 P.3     1  UNL1        0.2208
     26 O          20.9420   70.2406   -2.5181 O.3     1  UNL1       -0.4371
     27 O          19.1984   72.1397   -2.9984 O.2     1  UNL1       -0.5170
     28 O          21.7328   72.6713   -2.6031 O.3     1  UNL1       -0.2858
     29 O          21.3011   72.7296   -0.2772 O.3     1  UNL1       -0.3226
     30 O          24.7586   75.0174   -0.5789 O.3     1  UNL1       -0.3794
     31 O          22.6298   75.2820   -2.5548 O.3     1  UNL1       -0.3775
     32 O          23.2312   73.9513    1.4608 O.3     1  UNL1       -0.3792
     33 C          23.8232   73.9858   -0.8808 C.3     1  UNL1        0.1718
     34 C          22.4847   74.5896   -1.3193 C.3     1  UNL1        0.1968
     35 C          23.6235   73.1182    0.3649 C.3     1  UNL1        0.1723
     36 C          21.4220   73.4955   -1.4805 C.3     1  UNL1        0.2706
     37 C          22.5200   72.0948    0.1060 C.3     1  UNL1        0.1830
     38 H          25.5879   74.5903   -0.3044 H       1  UNL1        0.2105
     39 H          21.7579   75.6376   -2.7959 H       1  UNL1        0.2106
     40 H          22.3074   74.2230    1.3270 H       1  UNL1        0.2106
     41 O          21.5561   70.1618    1.0217 O.co2   1  UNL1       -0.5466
     42 O          22.4829   71.6500    2.4789 O.co2   1  UNL1       -0.5466
     43 C          22.2011   71.3103    1.3389 C.2     1  UNL1        0.0799
@<TRIPOS>UNITY_ATOM_ATTR
41 1
charge -1
@<TRIPOS>BOND
     1     1     4    1
     2     1    24    1
     3     1     2    1
     4     1     3    2
     5    25    28    1
     6    25    24    1
     7    25    26    1
     8    25    27    2
     9     6    11    1
    10     6    12    1
    11    29    36    1
    12    29    37    1
    13     7     9    1
    14     7    13    1
    15     8    10    1
    16     8    14    1
    17     4     5    1
    18    28    36    1
    19    30    33    1
    20    30    38    1
    21    31    34    1
    22    31    39    1
    23    32    35    1
    24    32    40    1
    25    41    43   ar
    26    15    19    2
    27    42    43   ar
    28    16    22    2
    29    17    12    1
    30    17    19   ar
    31    17    20   ar
    32    18    19   ar
    33    18    22   ar
    34    18    23    1
    35     9    10    1
    36     9    11    1
    37    10    12    1
    38    11     5    1
    39    33    34    1
    40    33    35    1
    41    34    36    1
    42    35    37    1
    43    37    43    1
    44    20    21   ar
    45    21    22   ar
@<TRIPOS>MOLECULE
UDP-glaA
 43 45 0 0 0
SMALL
GASTEIGER

@<TRIPOS>ATOM
      1 P          22.8940   70.9868    0.9937 P.3     1  UNL1        0.2189
      2 O          24.2484   70.2615    1.5006 O.3     1  UNL1       -0.4371
      3 O          21.6579   70.1387    1.0631 O.2     1  UNL1       -0.5170
      4 O          23.2788   71.5498   -0.4727 O.3     1  UNL1       -0.3112
      5 C          22.2307   71.8807   -1.3678 C.3     1  UNL1        0.1811
      6 O          21.7773   70.3985   -3.2040 O.3     1  UNL1       -0.3308
      7 O          23.3173   72.3321   -4.9013 O.3     1  UNL1       -0.3794
      8 O          20.7282   72.9630   -5.4797 O.3     1  UNL1       -0.3779
      9 C          22.4465   72.5915   -3.8003 C.3     1  UNL1        0.1713
     10 C          21.0033   72.3969   -4.2150 C.3     1  UNL1        0.1895
     11 C          22.6372   71.4785   -2.7783 C.3     1  UNL1        0.1764
     12 C          20.8754   70.8831   -4.2126 C.3     1  UNL1        0.2383
     13 H          24.2294   72.4307   -4.5789 H       1  UNL1        0.2105
     14 H          20.9382   73.9114   -5.4278 H       1  UNL1        0.2106
     15 O          19.9001   70.4954   -1.5908 O.2     1  UNL1       -0.2464
     16 O          15.7532   69.2005   -3.1288 O.2     1  UNL1       -0.2670
     17 N          19.5451   70.4458   -3.8988 N.ar    1  UNL1       -0.2551
     18 N          17.8359   69.8503   -2.3584 N.ar    1  UNL1       -0.2743
     19 C          19.1554   70.2814   -2.5491 C.ar    1  UNL1        0.3323
     20 C          18.6418   70.1843   -4.9230 C.ar    1  UNL1        0.0869
     21 C          17.3870   69.7744   -4.7249 C.ar    1  UNL1        0.0795
     22 C          16.9010   69.5771   -3.3449 C.ar    1  UNL1        0.2626
     23 H          17.5340   69.7247   -1.3960 H       1  UNL1        0.1734
     24 O          22.8420   72.3281    1.8955 O.3     1  UNL1       -0.2703
     25 P          21.6217   73.3334    2.2311 P.3     1  UNL1        0.2208
     26 O          20.4609   72.3423    2.7662 O.3     1  UNL1       -0.4371
     27 O          21.2094   74.2072    1.0812 O.2     1  UNL1       -0.5170
     28 O          22.1056   74.1408    3.5418 O.3     1  UNL1       -0.2858
     29 O          24.2943   73.7932    4.3714 O.3     1  UNL1       -0.3226
     30 O          22.4140   75.6037    7.6065 O.3     1  UNL1       -0.3794
     31 O          21.0224   73.5898    6.0209 O.3     1  UNL1       -0.3775
     32 O          24.9930   74.8762    6.9361 O.3     1  UNL1       -0.3792
     33 C          22.7202   75.3144    6.2453 C.3     1  UNL1        0.1718
     34 C          22.4202   73.8449    5.9307 C.3     1  UNL1        0.1968
     35 C          24.2015   75.6114    5.9970 C.3     1  UNL1        0.1723
     36 C          22.9055   73.4809    4.5220 C.3     1  UNL1        0.2706
     37 C          24.5829   75.1742    4.5843 C.3     1  UNL1        0.1830
     38 H          22.6211   76.5411    7.7609 H       1  UNL1        0.2105
     39 H          20.8807   72.6528    5.8050 H       1  UNL1        0.2106
     40 H          24.9901   73.9394    6.6760 H       1  UNL1        0.2106
     41 O          26.5472   76.3695    5.0496 O.co2   1  UNL1       -0.5466
     42 O          26.7190   74.6097    3.6106 O.co2   1  UNL1       -0.5466
     43 C          26.0509   75.3261    4.3420 C.2     1  UNL1        0.0799
@<TRIPOS>UNITY_ATOM_ATTR
41 1
charge -1
@<TRIPOS>BOND
     1     1     4    1
     2     1    24    1
     3     1     2    1
     4     1     3    2
     5    25    28    1
     6    25    24    1
     7    25    26    1
     8    25    27    2
     9     6    11    1
    10     6    12    1
    11    29    36    1
    12    29    37    1
    13     7     9    1
    14     7    13    1
    15     8    10    1
    16     8    14    1
    17     4     5    1
    18    28    36    1
    19    30    33    1
    20    30    38    1
    21    31    34    1
    22    31    39    1
    23    32    35    1
    24    32    40    1
    25    41    43   ar
    26    15    19    2
    27    42    43   ar
    28    16    22    2
    29    17    12    1
    30    17    19   ar
    31    17    20   ar
    32    18    19   ar
    33    18    22   ar
    34    18    23    1
    35     9    10    1
    36     9    11    1
    37    10    12    1
    38    11     5    1
    39    33    34    1
    40    33    35    1
    41    34    36    1
    42    35    37    1
    43    37    43    1
    44    20    21   ar
    45    21    22   ar
@<TRIPOS>MOLECULE
UDP-glaA
 43 45 0 0 0
SMALL
GASTEIGER

@<TRIPOS>ATOM
      1 P          23.2599   72.0693   -3.4627 P.3     1  UNL1        0.2189
      2 O          24.2129   70.8516   -2.9871 O.3     1  UNL1       -0.4371
      3 O          23.7251   72.7942   -4.6916 O.2     1  UNL1       -0.5170
      4 O          23.0922   72.9750   -2.1335 O.3     1  UNL1       -0.3112
      5 C          22.3035   74.1504   -2.2097 C.3     1  UNL1        0.1811
      6 O          21.3904   72.8867   -0.3811 O.3     1  UNL1       -0.3308
      7 O          19.7343   75.3124    0.2234 O.3     1  UNL1       -0.3794
      8 O          21.7423   75.4894    2.0598 O.3     1  UNL1       -0.3779
      9 C          21.0738   75.2316   -0.2634 C.3     1  UNL1        0.1713
     10 C          22.0125   74.8141    0.8489 C.3     1  UNL1        0.1895
     11 C          21.1575   74.0443   -1.2136 C.3     1  UNL1        0.1764
     12 C          21.7482   73.3210    0.9413 C.3     1  UNL1        0.2383
     13 H          19.1655   75.5439   -0.5305 H       1  UNL1        0.2105
     14 H          21.8272   76.4432    1.8884 H       1  UNL1        0.2106
     15 O          21.7746   70.5408    1.4366 O.2     1  UNL1       -0.2464
     16 O          26.2288   70.6085    2.6174 O.2     1  UNL1       -0.2670
     17 N          22.9008   72.5862    1.3784 N.ar    1  UNL1       -0.2551
     18 N          23.9925   70.5764    2.0248 N.ar    1  UNL1       -0.2743
     19 C          22.8080   71.1922    1.5993 C.ar    1  UNL1        0.3323
     20 C          24.1069   73.2468    1.5840 C.ar    1  UNL1        0.0869
     21 C          25.2276   72.6454    1.9893 C.ar    1  UNL1        0.0795
     22 C          25.2156   71.1912    2.2434 C.ar    1  UNL1        0.2626
     23 H          23.9491   69.5745    2.1905 H       1  UNL1        0.1734
     24 O          21.8125   71.3622   -3.6053 O.3     1  UNL1       -0.2703
     25 P          20.5686   71.6814   -4.5868 P.3     1  UNL1        0.2208
     26 O          21.1314   71.2676   -6.0456 O.3     1  UNL1       -0.4371
     27 O          20.0584   73.0911   -4.4961 O.2     1  UNL1       -0.5170
     28 O          19.4711   70.5513   -4.2368 O.3     1  UNL1       -0.2858
     29 O          17.7092   71.7652   -5.2476 O.3     1  UNL1       -0.3226
     30 O          16.3485   67.8484   -5.5407 O.3     1  UNL1       -0.3794
     31 O          17.6761   68.7781   -3.1160 O.3     1  UNL1       -0.3775
     32 O          15.5686   70.3190   -6.4986 O.3     1  UNL1       -0.3792
     33 C          17.2776   68.9282   -5.5088 C.3     1  UNL1        0.1718
     34 C          17.2222   69.6411   -4.1534 C.3     1  UNL1        0.1968
     35 C          16.9340   69.9105   -6.6319 C.3     1  UNL1        0.1723
     36 C          18.0904   70.9053   -4.1687 C.3     1  UNL1        0.2706
     37 C          17.8284   71.1439   -6.5264 C.3     1  UNL1        0.1830
     38 H          16.4162   67.4289   -6.4153 H       1  UNL1        0.2105
     39 H          17.6321   69.2744   -2.2814 H       1  UNL1        0.2106
     40 H          15.5017   70.9325   -5.7474 H       1  UNL1        0.2106
     41 O          17.2121   71.6288   -8.7375 O.co2   1  UNL1       -0.5466
     42 O          17.3389   73.3826   -7.2867 O.co2   1  UNL1       -0.5466
     43 C          17.4408   72.1879   -7.5247 C.2     1  UNL1        0.0799
@<TRIPOS>UNITY_ATOM_ATTR
41 1
charge -1
@<TRIPOS>BOND
     1     1     4    1
     2     1    24    1
     3     1     2    1
     4     1     3    2
     5    25    28    1
     6    25    24    1
     7    25    26    1
     8    25    27    2
     9     6    11    1
    10     6    12    1
    11    29    36    1
    12    29    37    1
    13     7     9    1
    14     7    13    1
    15     8    10    1
    16     8    14    1
    17     4     5    1
    18    28    36    1
    19    30    33    1
    20    30    38    1
    21    31    34    1
    22    31    39    1
    23    32    35    1
    24    32    40    1
    25    41    43   ar
    26    15    19    2
    27    42    43   ar
    28    16    22    2
    29    17    12    1
    30    17    19   ar
    31    17    20   ar
    32    18    19   ar
    33    18    22   ar
    34    18    23    1
    35     9    10    1
    36     9    11    1
    37    10    12    1
    38    11     5    1
    39    33    34    1
    40    33    35    1
    41    34    36    1
    42    35    37    1
    43    37    43    1
    44    20    21   ar
    45    21    22   ar
