


 87 92  0  0  0  0  0  0  0  0999 V2000
   -1.9240   -7.4580  -17.5020 O   0  0  0  0  0  0  0  0  0  0  0  0
   -2.2980   -4.9810  -19.8780 C   0  0  0  0  0  0  0  0  0  0  0  0
   -2.2440   -5.5790  -18.6420 O   0  0  0  0  0  0  0  0  0  0  0  0
   -1.9970   -6.9800  -18.7700 C   0  0  0  0  0  0  0  0  0  0  0  0
   -3.1800   -7.6330  -19.3960 C   0  0  0  0  0  0  0  0  0  0  0  0
   -2.9390   -9.0150  -19.5810 O   0  0  0  0  0  0  0  0  0  0  0  0
   -3.3670   -6.9840  -20.7870 C   0  0  0  0  0  0  0  0  0  0  0  0
   -4.5340   -7.5230  -21.3820 O   0  0  0  0  0  0  0  0  0  0  0  0
   -3.5420   -5.4980  -20.6460 C   0  0  0  0  0  0  0  0  0  0  0  0
   -3.5680   -4.8560  -21.8810 O   0  0  0  0  0  0  0  0  0  0  0  0
   -2.1589   -9.1345  -20.1450 H   0  0  0  0  0  0  0  0  0  0  0  0
   -5.3012   -7.3321  -20.8200 H   0  0  0  0  0  0  0  0  0  0  0  0
   -2.7363   -5.0248  -22.3507 H   0  0  0  0  0  0  0  0  0  0  0  0
   -2.5910   -3.4980  -19.5690 C   0  0  0  0  0  0  0  0  0  0  0  0
   -1.7500   -2.6910  -20.1670 O   0  0  0  0  0  0  0  0  0  0  0  0
   -3.2920    0.1360  -18.7090 C   0  0  0  0  0  0  0  0  0  0  0  0
   -3.2610   -0.9720  -19.6220 O   0  0  0  0  0  0  0  0  0  0  0  0
   -1.8390   -1.4210  -19.6720 C   0  0  0  0  0  0  0  0  0  0  0  0
   -1.0410   -0.3870  -20.3400 C   0  0  0  0  0  0  0  0  0  0  0  0
    0.2840   -0.8050  -20.4630 O   0  0  0  0  0  0  0  0  0  0  0  0
   -1.0880    0.8750  -19.3880 C   0  0  0  0  0  0  0  0  0  0  0  0
   -0.3770    1.9690  -19.9600 O   0  0  0  0  0  0  0  0  0  0  0  0
   -2.5220    1.3140  -19.1910 C   0  0  0  0  0  0  0  0  0  0  0  0
   -2.5910    2.3090  -18.1860 O   0  0  0  0  0  0  0  0  0  0  0  0
    0.6449   -0.9987  -19.5837 H   0  0  0  0  0  0  0  0  0  0  0  0
   -0.7872    2.2155  -20.8037 H   0  0  0  0  0  0  0  0  0  0  0  0
   -2.2380    1.9543  -17.3551 H   0  0  0  0  0  0  0  0  0  0  0  0
   -4.7450    0.4460  -18.4570 C   0  0  0  0  0  0  0  0  0  0  0  0
   -5.3690    1.2650  -19.3470 O   0  0  0  0  0  0  0  0  0  0  0  0
   -8.7160    1.4440  -18.0350 C   0  0  0  0  0  0  0  0  0  0  0  0
   -7.6140    0.8840  -18.7580 O   0  0  0  0  0  0  0  0  0  0  0  0
   -6.5220    1.8360  -18.8350 C   0  0  0  0  0  0  0  0  0  0  0  0
   -6.9910    3.0910  -19.5610 C   0  0  0  0  0  0  0  0  0  0  0  0
   -5.9740    4.0250  -19.5610 O   0  0  0  0  0  0  0  0  0  0  0  0
   -8.2330    3.6560  -18.8350 C   0  0  0  0  0  0  0  0  0  0  0  0
   -8.7130    4.7530  -19.6140 O   0  0  0  0  0  0  0  0  0  0  0  0
   -9.2930    2.6210  -18.8130 C   0  0  0  0  0  0  0  0  0  0  0  0
  -10.4270    3.1830  -18.1130 O   0  0  0  0  0  0  0  0  0  0  0  0
   -5.7346    4.2423  -18.6465 H   0  0  0  0  0  0  0  0  0  0  0  0
   -8.9256    4.4454  -20.5090 H   0  0  0  0  0  0  0  0  0  0  0  0
  -10.1514    3.4687  -17.2279 H   0  0  0  0  0  0  0  0  0  0  0  0
   -9.5540   -0.7130  -18.6520 O   0  0  0  0  0  0  0  0  0  0  0  0
   -9.7850    0.3900  -17.9060 C   0  0  0  0  0  0  0  0  0  0  0  0
  -10.2762   -1.3476  -18.5231 H   0  0  0  0  0  0  0  0  0  0  0  0
   -1.0720   -7.0690  -16.8680 C   0  0  0  0  0  0  0  0  0  0  0  0
   -0.7540   -8.0090  -15.6980 C   0  0  0  0  0  0  0  0  0  0  0  0
   -0.6990   -9.3200  -16.2250 O   0  0  0  0  0  0  0  0  0  0  0  0
   -0.3940  -10.3060  -15.2290 C   0  0  0  0  0  0  0  0  0  0  0  0
    1.0000  -10.0380  -14.7880 C   0  0  0  0  0  0  0  0  0  0  0  0
    1.3090  -11.0120  -13.8400 O   0  0  0  0  0  0  0  0  0  0  0  0
    1.0750   -8.6310  -14.2440 C   0  0  0  0  0  0  0  0  0  0  0  0
    2.4070   -8.3480  -13.9460 O   0  0  0  0  0  0  0  0  0  0  0  0
    0.6020   -7.6480  -15.2440 C   0  0  0  0  0  0  0  0  0  0  0  0
    0.4950   -6.3380  -14.7310 O   0  0  0  0  0  0  0  0  0  0  0  0
    0.6682  -10.9704  -13.1130 H   0  0  0  0  0  0  0  0  0  0  0  0
    2.9408   -8.4181  -14.7529 H   0  0  0  0  0  0  0  0  0  0  0  0
   -0.1636   -6.3224  -14.0190 H   0  0  0  0  0  0  0  0  0  0  0  0
   -0.5350  -11.5360  -15.8540 O   0  0  0  0  0  0  0  0  0  0  0  0
   -1.8670  -11.9150  -15.9110 C   0  0  0  0  0  0  0  0  0  0  0  0
   -2.1060  -13.1900  -16.5400 C   0  0  0  0  0  0  0  0  0  0  0  0
   -1.1670  -13.5590  -17.5490 O   0  0  0  0  0  0  0  0  0  0  0  0
   -1.5630  -14.7520  -18.2640 C   0  0  0  0  0  0  0  0  0  0  0  0
   -1.7980  -15.9250  -17.3440 C   0  0  0  0  0  0  0  0  0  0  0  0
   -2.2800  -17.0080  -18.1090 O   0  0  0  0  0  0  0  0  0  0  0  0
   -2.7520  -15.5360  -16.2550 C   0  0  0  0  0  0  0  0  0  0  0  0
   -2.8490  -16.6170  -15.4060 O   0  0  0  0  0  0  0  0  0  0  0  0
   -2.1100  -14.3300  -15.5890 C   0  0  0  0  0  0  0  0  0  0  0  0
   -2.6740  -13.9280  -14.4300 O   0  0  0  0  0  0  0  0  0  0  0  0
   -3.1085  -16.7530  -18.5443 H   0  0  0  0  0  0  0  0  0  0  0  0
   -1.9642  -16.8639  -15.0945 H   0  0  0  0  0  0  0  0  0  0  0  0
   -3.5789  -13.6225  -14.5996 H   0  0  0  0  0  0  0  0  0  0  0  0
   -0.5280  -15.0910  -19.1420 O   0  0  0  0  0  0  0  0  0  0  0  0
   -0.3630  -14.2160  -20.1500 C   0  0  0  0  0  0  0  0  0  0  0  0
    0.3810  -14.8320  -21.2620 C   0  0  0  0  0  0  0  0  0  0  0  0
    0.9210  -16.0560  -20.8250 O   0  0  0  0  0  0  0  0  0  0  0  0
    1.6390  -16.7230  -21.8560 C   0  0  0  0  0  0  0  0  0  0  0  0
    2.1960  -17.7910  -21.3610 O   0  0  0  0  0  0  0  0  0  0  0  0
    0.7710  -16.9260  -23.0710 C   0  0  0  0  0  0  0  0  0  0  0  0
    1.5750  -17.5520  -24.0800 O   0  0  0  0  0  0  0  0  0  0  0  0
    0.2230  -15.6080  -23.5590 C   0  0  0  0  0  0  0  0  0  0  0  0
   -0.6310  -15.8020  -24.6650 O   0  0  0  0  0  0  0  0  0  0  0  0
   -0.5160  -14.9690  -22.4190 C   0  0  0  0  0  0  0  0  0  0  0  0
   -1.0260  -13.7390  -22.7450 O   0  0  0  0  0  0  0  0  0  0  0  0
    1.5103  -18.3793  -21.0080 H   0  0  0  0  0  0  0  0  0  0  0  0
    2.3317  -16.9826  -24.2898 H   0  0  0  0  0  0  0  0  0  0  0  0
   -1.3689  -16.3763  -24.4069 H   0  0  0  0  0  0  0  0  0  0  0  0
   -0.2992  -13.1359  -22.9662 H   0  0  0  0  0  0  0  0  0  0  0  0
 81 80  1  0
 79 78  1  0
 80 78  1  0
 80 82  1  0
 78 76  1  0
 83 82  1  0
 82 74  1  0
 10  9  1  0
 76 77  1  0
 76 75  1  0
  8  7  1  0
 74 75  1  0
 74 73  1  0
  7  9  1  0
  7  5  1  0
  9  2  1  0
 20 19  1  0
 19 18  1  0
 19 21  1  0
 15 18  1  0
 15 14  1  0
 73 72  1  0
 22 21  1  0
  2 14  1  0
  2  3  1  0
 18 17  1  0
 17 16  1  0
 36 35  1  0
  6  5  1  0
 33 34  1  0
 33 35  1  0
 33 32  1  0
  5  4  1  0
 21 23  1  0
 29 32  1  0
 29 28  1  0
 23 16  1  0
 23 24  1  0
 72 62  1  0
 35 37  1  0
 32 31  1  0
 37 38  1  0
 37 30  1  0
  4  3  1  0
  4  1  1  0
 31 30  1  0
 16 28  1  0
 42 43  1  0
 62 61  1  0
 62 63  1  0
 64 63  1  0
 30 43  1  0
 61 60  1  0
  1 45  1  0
 63 65  1  0
 45 46  1  0
 60 59  1  0
 60 67  1  0
 65 67  1  0
 65 66  1  0
 47 46  1  0
 47 48  1  0
 59 58  1  0
 58 48  1  0
 46 53  1  0
 67 68  1  0
 53 54  1  0
 53 51  1  0
 48 49  1  0
 49 51  1  0
 49 50  1  0
 51 52  1  0
 42 44  1  0
 77 84  1  0
 79 85  1  0
 81 86  1  0
 83 87  1  0
 64 69  1  0
 66 70  1  0
 68 71  1  0
 50 55  1  0
 52 56  1  0
 54 57  1  0
  6 11  1  0
  8 12  1  0
 10 13  1  0
 20 25  1  0
 22 26  1  0
 24 27  1  0
 34 39  1  0
 36 40  1  0
 38 41  1  0
M  END
> <minimizedAffinity>
-2.81153

> <CNNscore>
0.6198763251

> <CNNaffinity>
3.5830078125

> <CNN_VS>
2.2210216522

> <CNNaffinity_variance>
0.5576531291

$$$$
