


 87 92  0  0  0  0  0  0  0  0999 V2000
  -15.1860   -2.3010    8.8200 O   0  0  0  0  0  0  0  0  0  0  0  0
  -16.8420    0.4870   10.2350 C   0  0  0  0  0  0  0  0  0  0  0  0
  -16.0720   -0.2380    9.3410 O   0  0  0  0  0  0  0  0  0  0  0  0
  -15.9320   -1.6330    9.7170 C   0  0  0  0  0  0  0  0  0  0  0  0
  -15.1870   -1.6760   11.0170 C   0  0  0  0  0  0  0  0  0  0  0  0
  -15.1600   -2.9920   11.5020 O   0  0  0  0  0  0  0  0  0  0  0  0
  -15.9200   -0.7510   12.0380 C   0  0  0  0  0  0  0  0  0  0  0  0
  -15.1660   -0.6550   13.2470 O   0  0  0  0  0  0  0  0  0  0  0  0
  -16.0810    0.6310   11.5470 C   0  0  0  0  0  0  0  0  0  0  0  0
  -16.8330    1.4670   12.3920 O   0  0  0  0  0  0  0  0  0  0  0  0
  -16.0680   -3.3069   11.6334 H   0  0  0  0  0  0  0  0  0  0  0  0
  -14.3059   -0.2473   13.0601 H   0  0  0  0  0  0  0  0  0  0  0  0
  -17.7250    1.1011   12.4983 H   0  0  0  0  0  0  0  0  0  0  0  0
  -17.0850    1.9560    9.8240 C   0  0  0  0  0  0  0  0  0  0  0  0
  -16.3220    2.5740    9.0440 O   0  0  0  0  0  0  0  0  0  0  0  0
  -15.0690    5.7130    9.4380 C   0  0  0  0  0  0  0  0  0  0  0  0
  -15.8640    4.6590    9.9430 O   0  0  0  0  0  0  0  0  0  0  0  0
  -16.2910    3.8560    8.7380 C   0  0  0  0  0  0  0  0  0  0  0  0
  -17.2740    4.6560    8.0400 C   0  0  0  0  0  0  0  0  0  0  0  0
  -17.7530    4.0010    6.9050 O   0  0  0  0  0  0  0  0  0  0  0  0
  -16.4350    5.9290    7.4570 C   0  0  0  0  0  0  0  0  0  0  0  0
  -17.2450    6.8530    6.7440 O   0  0  0  0  0  0  0  0  0  0  0  0
  -15.8510    6.6980    8.6250 C   0  0  0  0  0  0  0  0  0  0  0  0
  -14.9090    7.6670    8.1640 O   0  0  0  0  0  0  0  0  0  0  0  0
  -17.0120    3.7943    6.3141 H   0  0  0  0  0  0  0  0  0  0  0  0
  -17.9178    7.2195    7.3390 H   0  0  0  0  0  0  0  0  0  0  0  0
  -14.2010    7.2215    7.6729 H   0  0  0  0  0  0  0  0  0  0  0  0
  -14.4740    6.4710   10.6400 C   0  0  0  0  0  0  0  0  0  0  0  0
  -15.1400    7.6290   10.9730 O   0  0  0  0  0  0  0  0  0  0  0  0
  -13.5670    9.0130   13.9010 C   0  0  0  0  0  0  0  0  0  0  0  0
  -14.3370    8.1150   13.1310 O   0  0  0  0  0  0  0  0  0  0  0  0
  -14.4280    8.5190   11.7290 C   0  0  0  0  0  0  0  0  0  0  0  0
  -15.0080    9.9300   11.6490 C   0  0  0  0  0  0  0  0  0  0  0  0
  -15.0120   10.3710   10.3240 O   0  0  0  0  0  0  0  0  0  0  0  0
  -14.1820   10.8760   12.5020 C   0  0  0  0  0  0  0  0  0  0  0  0
  -14.8120   12.1810   12.5130 O   0  0  0  0  0  0  0  0  0  0  0  0
  -14.2090   10.3900   13.9330 C   0  0  0  0  0  0  0  0  0  0  0  0
  -13.4060   11.2760   14.7340 O   0  0  0  0  0  0  0  0  0  0  0  0
  -14.1028   10.3885    9.9863 H   0  0  0  0  0  0  0  0  0  0  0  0
  -15.7094   12.1038   12.8730 H   0  0  0  0  0  0  0  0  0  0  0  0
  -12.5062   11.3117   14.3735 H   0  0  0  0  0  0  0  0  0  0  0  0
  -14.6620    7.8740   15.7160 O   0  0  0  0  0  0  0  0  0  0  0  0
  -13.4890    8.4770   15.3090 C   0  0  0  0  0  0  0  0  0  0  0  0
  -14.5598    7.5479   16.6238 H   0  0  0  0  0  0  0  0  0  0  0  0
  -15.7430   -2.5120    7.6680 C   0  0  0  0  0  0  0  0  0  0  0  0
  -14.8830   -3.5600    6.9000 C   0  0  0  0  0  0  0  0  0  0  0  0
  -15.4420   -4.8270    7.1700 O   0  0  0  0  0  0  0  0  0  0  0  0
  -14.7230   -5.8930    6.5310 C   0  0  0  0  0  0  0  0  0  0  0  0
  -14.8500   -5.7220    5.0670 C   0  0  0  0  0  0  0  0  0  0  0  0
  -14.1400   -6.7660    4.4540 O   0  0  0  0  0  0  0  0  0  0  0  0
  -14.3220   -4.3640    4.6800 C   0  0  0  0  0  0  0  0  0  0  0  0
  -14.6280   -4.1630    3.3290 O   0  0  0  0  0  0  0  0  0  0  0  0
  -14.9680   -3.2630    5.4710 C   0  0  0  0  0  0  0  0  0  0  0  0
  -14.3580   -2.0010    5.2780 O   0  0  0  0  0  0  0  0  0  0  0  0
  -13.2127   -6.7362    4.7370 H   0  0  0  0  0  0  0  0  0  0  0  0
  -15.5898   -4.1947    3.2071 H   0  0  0  0  0  0  0  0  0  0  0  0
  -13.4397   -2.0348    5.5886 H   0  0  0  0  0  0  0  0  0  0  0  0
  -15.3040   -7.0790    6.9500 O   0  0  0  0  0  0  0  0  0  0  0  0
  -14.8010   -7.5130    8.1540 C   0  0  0  0  0  0  0  0  0  0  0  0
  -15.3380   -8.7990    8.6130 C   0  0  0  0  0  0  0  0  0  0  0  0
  -16.4730   -9.2770    7.9110 O   0  0  0  0  0  0  0  0  0  0  0  0
  -17.0100  -10.5020    8.4910 C   0  0  0  0  0  0  0  0  0  0  0  0
  -15.9830  -11.6170    8.5400 C   0  0  0  0  0  0  0  0  0  0  0  0
  -16.6000  -12.7490    9.1580 O   0  0  0  0  0  0  0  0  0  0  0  0
  -14.8300  -11.1510    9.2680 C   0  0  0  0  0  0  0  0  0  0  0  0
  -13.9020  -12.1950    9.2330 O   0  0  0  0  0  0  0  0  0  0  0  0
  -14.3400   -9.9060    8.5220 C   0  0  0  0  0  0  0  0  0  0  0  0
  -13.1510   -9.5660    8.9950 O   0  0  0  0  0  0  0  0  0  0  0  0
  -16.9079  -12.5053   10.0450 H   0  0  0  0  0  0  0  0  0  0  0  0
  -13.7254  -12.4398    8.3112 H   0  0  0  0  0  0  0  0  0  0  0  0
  -13.2242   -9.3679    9.9417 H   0  0  0  0  0  0  0  0  0  0  0  0
  -18.0550  -10.9890    7.7320 O   0  0  0  0  0  0  0  0  0  0  0  0
  -19.2120  -10.3870    7.8860 C   0  0  0  0  0  0  0  0  0  0  0  0
  -20.3070  -11.3640    7.6620 C   0  0  0  0  0  0  0  0  0  0  0  0
  -20.6240  -11.3970    6.2570 O   0  0  0  0  0  0  0  0  0  0  0  0
  -21.7440  -12.2830    6.0320 C   0  0  0  0  0  0  0  0  0  0  0  0
  -22.1140  -12.1870    4.7930 O   0  0  0  0  0  0  0  0  0  0  0  0
  -21.5070  -13.6630    6.4900 C   0  0  0  0  0  0  0  0  0  0  0  0
  -22.6530  -14.4760    6.2470 O   0  0  0  0  0  0  0  0  0  0  0  0
  -21.1550  -13.6520    7.9550 C   0  0  0  0  0  0  0  0  0  0  0  0
  -20.9000  -14.9640    8.3680 O   0  0  0  0  0  0  0  0  0  0  0  0
  -19.9850  -12.7160    8.1280 C   0  0  0  0  0  0  0  0  0  0  0  0
  -19.5220  -12.6670    9.4360 O   0  0  0  0  0  0  0  0  0  0  0  0
  -21.3867  -12.4674    4.2157 H   0  0  0  0  0  0  0  0  0  0  0  0
  -23.4119  -14.1189    6.7343 H   0  0  0  0  0  0  0  0  0  0  0  0
  -20.1804  -15.3367    7.8349 H   0  0  0  0  0  0  0  0  0  0  0  0
  -20.2152  -12.3069   10.0111 H   0  0  0  0  0  0  0  0  0  0  0  0
 52 51  1  0
 50 49  1  0
 51 49  1  0
 51 53  1  0
 77 76  1  0
 49 48  1  0
 54 53  1  0
 53 46  1  0
 76 75  1  0
 76 78  1  0
 79 78  1  0
 75 74  1  0
 78 80  1  0
 48 58  1  0
 48 47  1  0
 22 21  1  0
 46 47  1  0
 46 45  1  0
 20 19  1  0
 58 59  1  0
 21 19  1  0
 21 23  1  0
 74 73  1  0
 74 82  1  0
 45  1  1  0
 72 73  1  0
 72 62  1  0
 61 62  1  0
 61 60  1  0
 80 82  1  0
 80 81  1  0
 19 18  1  0
 82 83  1  0
 59 60  1  0
 24 23  1  0
 62 63  1  0
 67 60  1  0
 67 68  1  0
 67 65  1  0
 63 64  1  0
 63 65  1  0
 23 16  1  0
 18 15  1  0
 18 17  1  0
  1  4  1  0
 15 14  1  0
 66 65  1  0
  3  4  1  0
  3  2  1  0
 16 17  1  0
 16 28  1  0
  4  5  1  0
 14  2  1  0
  2  9  1  0
 34 33  1  0
 28 29  1  0
 29 32  1  0
  5  6  1  0
  5  7  1  0
  9  7  1  0
  9 10  1  0
 33 32  1  0
 33 35  1  0
 32 31  1  0
  7  8  1  0
 35 36  1  0
 35 37  1  0
 31 30  1  0
 30 37  1  0
 30 43  1  0
 37 38  1  0
 43 42  1  0
 42 44  1  0
 77 84  1  0
 79 85  1  0
 81 86  1  0
 83 87  1  0
 64 69  1  0
 66 70  1  0
 68 71  1  0
 50 55  1  0
 52 56  1  0
 54 57  1  0
  6 11  1  0
  8 12  1  0
 10 13  1  0
 20 25  1  0
 22 26  1  0
 24 27  1  0
 34 39  1  0
 36 40  1  0
 38 41  1  0
M  END
> <minimizedAffinity>
-1.86516

> <CNNscore>
0.3755726218

> <CNNaffinity>
3.3499991894

> <CNN_VS>
1.2581679821

> <CNNaffinity_variance>
0.6409435272

$$$$
