


 87 92  0  0  0  0  0  0  0  0999 V2000
   13.9730   -4.8840    7.7250 O   0  0  0  0  0  0  0  0  0  0  0  0
   15.9970   -2.0840    7.6640 C   0  0  0  0  0  0  0  0  0  0  0  0
   15.0970   -3.0460    7.2310 O   0  0  0  0  0  0  0  0  0  0  0  0
   14.8830   -3.9620    8.2020 C   0  0  0  0  0  0  0  0  0  0  0  0
   16.0020   -4.7600    8.5280 C   0  0  0  0  0  0  0  0  0  0  0  0
   15.7400   -5.6990    9.5550 O   0  0  0  0  0  0  0  0  0  0  0  0
   17.0860   -3.7530    8.9980 C   0  0  0  0  0  0  0  0  0  0  0  0
   18.2960   -4.4090    9.2190 O   0  0  0  0  0  0  0  0  0  0  0  0
   17.3010   -2.6730    7.9920 C   0  0  0  0  0  0  0  0  0  0  0  0
   18.1130   -1.6390    8.4760 O   0  0  0  0  0  0  0  0  0  0  0  0
   15.4640   -5.2308   10.3584 H   0  0  0  0  0  0  0  0  0  0  0  0
   18.6056   -4.8045    8.3892 H   0  0  0  0  0  0  0  0  0  0  0  0
   17.6889   -1.2281    9.2456 H   0  0  0  0  0  0  0  0  0  0  0  0
   16.3240   -1.1690    6.4680 C   0  0  0  0  0  0  0  0  0  0  0  0
   15.8370   -0.0100    6.5820 O   0  0  0  0  0  0  0  0  0  0  0  0
   15.5660    0.9700    3.2060 C   0  0  0  0  0  0  0  0  0  0  0  0
   16.1990    0.1740    4.2130 O   0  0  0  0  0  0  0  0  0  0  0  0
   15.8300    0.8140    5.5270 C   0  0  0  0  0  0  0  0  0  0  0  0
   16.5900    2.0550    5.6080 C   0  0  0  0  0  0  0  0  0  0  0  0
   16.3320    2.6140    6.8970 O   0  0  0  0  0  0  0  0  0  0  0  0
   15.9270    2.9890    4.5140 C   0  0  0  0  0  0  0  0  0  0  0  0
   16.5810    4.2440    4.5010 O   0  0  0  0  0  0  0  0  0  0  0  0
   16.1030    2.3640    3.1530 C   0  0  0  0  0  0  0  0  0  0  0  0
   15.3450    3.0600    2.1850 O   0  0  0  0  0  0  0  0  0  0  0  0
   15.3754    2.7195    7.0181 H   0  0  0  0  0  0  0  0  0  0  0  0
   17.5196    4.1173    4.2914 H   0  0  0  0  0  0  0  0  0  0  0  0
   14.4063    3.0314    2.4276 H   0  0  0  0  0  0  0  0  0  0  0  0
   15.7540    0.3040    1.8660 C   0  0  0  0  0  0  0  0  0  0  0  0
   17.0480    0.2170    1.4630 O   0  0  0  0  0  0  0  0  0  0  0  0
   17.0210   -2.0810   -1.2910 C   0  0  0  0  0  0  0  0  0  0  0  0
   16.8450   -1.6070    0.0430 O   0  0  0  0  0  0  0  0  0  0  0  0
   17.2050   -0.2070    0.1670 C   0  0  0  0  0  0  0  0  0  0  0  0
   18.6000    0.0560   -0.3400 C   0  0  0  0  0  0  0  0  0  0  0  0
   18.8230    1.4280   -0.2970 O   0  0  0  0  0  0  0  0  0  0  0  0
   18.7680   -0.5170   -1.7240 C   0  0  0  0  0  0  0  0  0  0  0  0
   20.1610   -0.3500   -2.0520 O   0  0  0  0  0  0  0  0  0  0  0  0
   18.4570   -1.9590   -1.7150 C   0  0  0  0  0  0  0  0  0  0  0  0
   18.6250   -2.4440   -3.0370 O   0  0  0  0  0  0  0  0  0  0  0  0
   18.1675    1.8796   -0.8513 H   0  0  0  0  0  0  0  0  0  0  0  0
   20.7057   -0.8047   -1.3906 H   0  0  0  0  0  0  0  0  0  0  0  0
   18.0554   -1.9417   -3.6405 H   0  0  0  0  0  0  0  0  0  0  0  0
   16.8210   -4.1930   -0.1900 O   0  0  0  0  0  0  0  0  0  0  0  0
   16.5820   -3.5090   -1.3560 C   0  0  0  0  0  0  0  0  0  0  0  0
   16.5190   -5.1099   -0.2853 H   0  0  0  0  0  0  0  0  0  0  0  0
   12.9730   -4.4740    7.3760 C   0  0  0  0  0  0  0  0  0  0  0  0
   11.7180   -5.3450    7.4460 C   0  0  0  0  0  0  0  0  0  0  0  0
   11.9190   -6.3330    8.4050 O   0  0  0  0  0  0  0  0  0  0  0  0
   10.8070   -7.1960    8.5900 C   0  0  0  0  0  0  0  0  0  0  0  0
    9.6980   -6.4000    9.1320 C   0  0  0  0  0  0  0  0  0  0  0  0
    8.6190   -7.2830    9.2610 O   0  0  0  0  0  0  0  0  0  0  0  0
    9.4380   -5.2460    8.2400 C   0  0  0  0  0  0  0  0  0  0  0  0
    8.5770   -4.4520    8.9690 O   0  0  0  0  0  0  0  0  0  0  0  0
   10.6570   -4.4610    7.9350 C   0  0  0  0  0  0  0  0  0  0  0  0
   10.4220   -3.4870    6.9290 O   0  0  0  0  0  0  0  0  0  0  0  0
    8.4203   -7.6790    8.3981 H   0  0  0  0  0  0  0  0  0  0  0  0
    9.0006   -4.1972    9.8036 H   0  0  0  0  0  0  0  0  0  0  0  0
   10.1620   -3.9289    6.1056 H   0  0  0  0  0  0  0  0  0  0  0  0
   11.1280   -8.1270    9.5730 O   0  0  0  0  0  0  0  0  0  0  0  0
   11.7260   -9.2300    9.1250 C   0  0  0  0  0  0  0  0  0  0  0  0
   11.8160  -10.2500   10.1860 C   0  0  0  0  0  0  0  0  0  0  0  0
   11.9210   -9.7210   11.5300 O   0  0  0  0  0  0  0  0  0  0  0  0
   12.1380  -10.7500   12.5260 C   0  0  0  0  0  0  0  0  0  0  0  0
   11.0960  -11.8520   12.5170 C   0  0  0  0  0  0  0  0  0  0  0  0
   11.4870  -12.8780   13.4150 O   0  0  0  0  0  0  0  0  0  0  0  0
   10.9500  -12.3610   11.1330 C   0  0  0  0  0  0  0  0  0  0  0  0
    9.9240  -13.2950   11.1790 O   0  0  0  0  0  0  0  0  0  0  0  0
   10.6270  -11.1430   10.2840 C   0  0  0  0  0  0  0  0  0  0  0  0
   10.1730  -11.4070    9.0300 O   0  0  0  0  0  0  0  0  0  0  0  0
   12.3470  -13.2351   13.1433 H   0  0  0  0  0  0  0  0  0  0  0  0
    9.1285  -12.8833   11.5513 H   0  0  0  0  0  0  0  0  0  0  0  0
   10.8729  -11.8408    8.5174 H   0  0  0  0  0  0  0  0  0  0  0  0
   12.0330  -10.2460   13.8320 O   0  0  0  0  0  0  0  0  0  0  0  0
   12.8980   -9.3200   14.1860 C   0  0  0  0  0  0  0  0  0  0  0  0
   12.9030   -9.4320   15.6910 C   0  0  0  0  0  0  0  0  0  0  0  0
   14.0290  -10.2330   15.9900 O   0  0  0  0  0  0  0  0  0  0  0  0
   14.0390  -10.5390   17.3650 C   0  0  0  0  0  0  0  0  0  0  0  0
   15.0160  -11.3500   17.5880 O   0  0  0  0  0  0  0  0  0  0  0  0
   14.0180   -9.3010   18.2280 C   0  0  0  0  0  0  0  0  0  0  0  0
   13.9660   -9.7010   19.5980 O   0  0  0  0  0  0  0  0  0  0  0  0
   12.8170   -8.4290   17.8790 C   0  0  0  0  0  0  0  0  0  0  0  0
   12.8420   -7.2900   18.6750 O   0  0  0  0  0  0  0  0  0  0  0  0
   12.9210   -8.1570   16.4050 C   0  0  0  0  0  0  0  0  0  0  0  0
   11.9390   -7.3240   15.9370 O   0  0  0  0  0  0  0  0  0  0  0  0
   15.8520  -10.9249   17.3405 H   0  0  0  0  0  0  0  0  0  0  0  0
   13.1635  -10.2236   19.7520 H   0  0  0  0  0  0  0  0  0  0  0  0
   13.6813   -6.8219   18.5434 H   0  0  0  0  0  0  0  0  0  0  0  0
   11.0725   -7.7397   16.0687 H   0  0  0  0  0  0  0  0  0  0  0  0
 38 37  1  0
 36 35  1  0
 35 37  1  0
 35 33  1  0
 37 30  1  0
 43 30  1  0
 43 42  1  0
 30 31  1  0
 33 34  1  0
 33 32  1  0
 31 32  1  0
 32 29  1  0
 29 28  1  0
 28 16  1  0
 24 23  1  0
 23 16  1  0
 23 21  1  0
 16 17  1  0
 17 18  1  0
 22 21  1  0
 21 19  1  0
 18 19  1  0
 18 15  1  0
 19 20  1  0
 14 15  1  0
 14  2  1  0
 54 53  1  0
  3  2  1  0
  3  4  1  0
 45 46  1  0
 45  1  1  0
 46 53  1  0
 46 47  1  0
  2  9  1  0
  1  4  1  0
 53 51  1  0
  9 10  1  0
  9  7  1  0
  4  5  1  0
 51 52  1  0
 51 49  1  0
 47 48  1  0
  5  7  1  0
  5  6  1  0
 48 49  1  0
 48 58  1  0
  7  8  1  0
 68 67  1  0
 59 58  1  0
 59 60  1  0
 49 50  1  0
 60 67  1  0
 60 61  1  0
 67 65  1  0
 65 66  1  0
 65 63  1  0
 61 62  1  0
 63 62  1  0
 63 64  1  0
 62 72  1  0
 72 73  1  0
 73 74  1  0
 74 75  1  0
 74 82  1  0
 83 82  1  0
 75 76  1  0
 82 80  1  0
 76 77  1  0
 76 78  1  0
 80 78  1  0
 80 81  1  0
 78 79  1  0
 42 44  1  0
 77 84  1  0
 79 85  1  0
 81 86  1  0
 83 87  1  0
 64 69  1  0
 66 70  1  0
 68 71  1  0
 50 55  1  0
 52 56  1  0
 54 57  1  0
  6 11  1  0
  8 12  1  0
 10 13  1  0
 20 25  1  0
 22 26  1  0
 24 27  1  0
 34 39  1  0
 36 40  1  0
 38 41  1  0
M  END
> <minimizedAffinity>
-2.51427

> <CNNscore>
0.7772280574

> <CNNaffinity>
3.6389358044

> <CNN_VS>
2.8282830715

> <CNNaffinity_variance>
1.0441893339

$$$$
