@<TRIPOS>MOLECULE
*****
 43 45 0 0 0
SMALL
GASTEIGER

@<TRIPOS>ATOM
      1 P          23.0504   71.8119   -3.1917 P.3     1  UNL1        0.2189
      2 O          23.8494   72.9555   -4.0119 O.co2   1  UNL1       -0.4371
      3 O          23.6896   70.4544   -3.2118 O.2     1  UNL1       -0.5170
      4 O          21.5462   71.8891   -3.7828 O.3     1  UNL1       -0.3112
      5 C          20.6869   70.7803   -3.5915 C.3     1  UNL1        0.1811
      6 O          18.8529   71.8869   -4.6823 O.3     1  UNL1       -0.3308
      7 O          17.1195   70.7441   -2.5188 O.3     1  UNL1       -0.3794
      8 O          16.6423   69.0651   -4.6139 O.3     1  UNL1       -0.3779
      9 C          18.2544   70.1683   -3.1661 C.3     1  UNL1        0.1713
     10 C          17.8899   69.7252   -4.5672 C.3     1  UNL1        0.1895
     11 C          19.2571   71.2821   -3.4348 C.3     1  UNL1        0.1764
     12 C          17.8829   71.0431   -5.3229 C.3     1  UNL1        0.2383
     13 H          16.4647   70.0514   -2.3369 H       1  UNL1        0.2105
     14 H          16.6985   68.2322   -4.1190 H       1  UNL1        0.2106
     15 O          16.0480   70.4652   -7.3906 O.2     1  UNL1       -0.2464
     16 O          19.3704   70.4571  -10.5852 O.2     1  UNL1       -0.2670
     17 N          18.2414   70.8847   -6.7040 N.ar    1  UNL1       -0.2551
     18 N          17.7046   70.4607   -8.9796 N.ar    1  UNL1       -0.2743
     19 C          17.2427   70.5952   -7.6636 C.ar    1  UNL1        0.3323
     20 C          19.5679   71.0177   -7.0959 C.ar    1  UNL1        0.0869
     21 C          19.9929   70.8868   -8.3541 C.ar    1  UNL1        0.0795
     22 C          19.0132   70.5833   -9.4178 C.ar    1  UNL1        0.2626
     23 H          17.0280   70.2571   -9.6651 H       1  UNL1        0.1734
     24 O          22.8962   72.4618   -1.7198 O.3     1  UNL1       -0.2703
     25 P          22.2815   71.8578   -0.3519 P.3     1  UNL1        0.2208
     26 O          23.0062   70.4159   -0.2257 O.co2   1  UNL1       -0.4371
     27 O          20.7815   71.8007   -0.3234 O.2     1  UNL1       -0.5170
     28 O          22.9399   72.7485    0.8210 O.3     1  UNL1       -0.2858
     29 O          22.0287   73.7064    2.7860 O.3     1  UNL1       -0.3226
     30 O          24.7879   76.5668    1.6579 O.3     1  UNL1       -0.3794
     31 O          23.0972   75.2706   -0.3410 O.3     1  UNL1       -0.3775
     32 O          25.3617   74.7820    3.8797 O.3     1  UNL1       -0.3792
     33 C          24.2578   75.2478    1.7894 C.3     1  UNL1        0.1718
     34 C          22.9137   75.1620    1.0659 C.3     1  UNL1        0.1968
     35 C          24.0789   74.9565    3.2810 C.3     1  UNL1        0.1723
     36 C          22.2090   73.8406    1.3757 C.3     1  UNL1        0.2706
     37 C          23.2588   73.6896    3.5068 C.3     1  UNL1        0.1830
     38 H          24.9101   76.7742    0.7181 H       1  UNL1        0.2105
     39 H          23.5441   76.1067   -0.5448 H       1  UNL1        0.2106
     40 H          25.8938   75.5814    3.7430 H       1  UNL1        0.2106
     41 O          23.1075   74.7330    5.6020 O.co2   1  UNL1       -0.5466
     42 O          22.2562   72.6251    5.4259 O.co2   1  UNL1       -0.5466
     43 C          22.8127   73.5930    4.9295 C.2     1  UNL1        0.0799
@<TRIPOS>UNITY_ATOM_ATTR
2 1
charge -1
26 1
charge -1
41 1
charge -1
@<TRIPOS>BOND
     1     1     4    1
     2     1    24    1
     3     1     2    1
     4     1     3    2
     5    25    28    1
     6    25    24    1
     7    25    26    1
     8    25    27    2
     9     6    11    1
    10     6    12    1
    11    29    36    1
    12    29    37    1
    13     7     9    1
    14     7    13    1
    15     8    10    1
    16     8    14    1
    17     4     5    1
    18    28    36    1
    19    30    33    1
    20    30    38    1
    21    31    34    1
    22    31    39    1
    23    32    35    1
    24    32    40    1
    25    41    43   ar
    26    15    19    2
    27    42    43   ar
    28    16    22    2
    29    17    12    1
    30    17    19   ar
    31    17    20   ar
    32    18    19   ar
    33    18    22   ar
    34    18    23    1
    35     9    10    1
    36     9    11    1
    37    10    12    1
    38    11     5    1
    39    33    34    1
    40    33    35    1
    41    34    36    1
    42    35    37    1
    43    37    43    1
    44    20    21   ar
    45    21    22   ar
@<TRIPOS>MOLECULE
*****
 43 45 0 0 0
SMALL
GASTEIGER

@<TRIPOS>ATOM
      1 P          22.8189   72.0013   -2.4473 P.3     1  UNL1        0.2189
      2 O          23.2677   73.3543   -1.6813 O.co2   1  UNL1       -0.4371
      3 O          23.4891   71.7699   -3.7698 O.2     1  UNL1       -0.5170
      4 O          21.2040   72.0935   -2.4846 O.3     1  UNL1       -0.3112
      5 C          20.5128   71.4296   -3.5267 C.3     1  UNL1        0.1811
      6 O          18.5774   72.2197   -4.7133 O.3     1  UNL1       -0.3308
      7 O          16.9565   71.0091   -2.5000 O.3     1  UNL1       -0.3794
      8 O          16.7400   69.1497   -4.4828 O.3     1  UNL1       -0.3779
      9 C          18.1686   70.5416   -3.0922 C.3     1  UNL1        0.1713
     10 C          17.8930   69.9651   -4.4648 C.3     1  UNL1        0.1895
     11 C          19.0281   71.7542   -3.4227 C.3     1  UNL1        0.1764
     12 C          17.7356   71.2191   -5.3078 C.3     1  UNL1        0.2383
     13 H          16.3907   70.2520   -2.2800 H       1  UNL1        0.2105
     14 H          16.8904   68.3649   -3.9320 H       1  UNL1        0.2106
     15 O          16.0226   70.3164   -7.3638 O.2     1  UNL1       -0.2464
     16 O          19.3975   70.4827  -10.4985 O.2     1  UNL1       -0.2670
     17 N          18.1405   71.0177   -6.6703 N.ar    1  UNL1       -0.2551
     18 N          17.7054   70.3991   -8.9229 N.ar    1  UNL1       -0.2743
     19 C          17.2018   70.5613   -7.6255 C.ar    1  UNL1        0.3323
     20 C          19.4530   71.2730   -7.0488 C.ar    1  UNL1        0.0869
     21 C          19.9183   71.1138   -8.2893 C.ar    1  UNL1        0.0795
     22 C          19.0023   70.6393   -9.3472 C.ar    1  UNL1        0.2626
     23 H          17.0710   70.0803   -9.6049 H       1  UNL1        0.1734
     24 O          23.0919   70.8520   -1.3439 O.3     1  UNL1       -0.2703
     25 P          22.3857   70.5591    0.0807 P.3     1  UNL1        0.2208
     26 O          23.4693   69.6323    0.8469 O.co2   1  UNL1       -0.4371
     27 O          21.0166   69.9521   -0.0239 O.2     1  UNL1       -0.5170
     28 O          22.4344   71.9710    0.8596 O.3     1  UNL1       -0.2858
     29 O          21.6716   72.4654    3.0466 O.3     1  UNL1       -0.3226
     30 O          21.1783   76.0986    1.1428 O.3     1  UNL1       -0.3794
     31 O          20.4558   73.6099   -0.2059 O.3     1  UNL1       -0.3775
     32 O          23.3955   75.7036    2.9809 O.3     1  UNL1       -0.3792
     33 C          21.7934   74.8371    1.4038 C.3     1  UNL1        0.1718
     34 C          20.7790   73.7162    1.1758 C.3     1  UNL1        0.1968
     35 C          22.2706   74.8354    2.8578 C.3     1  UNL1        0.1723
     36 C          21.3273   72.3745    1.6636 C.3     1  UNL1        0.2706
     37 C          22.6825   73.4366    3.3074 C.3     1  UNL1        0.1830
     38 H          20.8670   76.1229    0.2242 H       1  UNL1        0.2105
     39 H          20.1075   74.4579   -0.5222 H       1  UNL1        0.2106
     40 H          23.1468   76.5973    2.6977 H       1  UNL1        0.2106
     41 O          23.9422   74.0414    5.1912 O.co2   1  UNL1       -0.5466
     42 O          22.0541   72.8153    5.5525 O.co2   1  UNL1       -0.5466
     43 C          22.8283   73.3783    4.7932 C.2     1  UNL1        0.0799
@<TRIPOS>UNITY_ATOM_ATTR
2 1
charge -1
26 1
charge -1
41 1
charge -1
@<TRIPOS>BOND
     1     1     4    1
     2     1    24    1
     3     1     2    1
     4     1     3    2
     5    25    28    1
     6    25    24    1
     7    25    26    1
     8    25    27    2
     9     6    11    1
    10     6    12    1
    11    29    36    1
    12    29    37    1
    13     7     9    1
    14     7    13    1
    15     8    10    1
    16     8    14    1
    17     4     5    1
    18    28    36    1
    19    30    33    1
    20    30    38    1
    21    31    34    1
    22    31    39    1
    23    32    35    1
    24    32    40    1
    25    41    43   ar
    26    15    19    2
    27    42    43   ar
    28    16    22    2
    29    17    12    1
    30    17    19   ar
    31    17    20   ar
    32    18    19   ar
    33    18    22   ar
    34    18    23    1
    35     9    10    1
    36     9    11    1
    37    10    12    1
    38    11     5    1
    39    33    34    1
    40    33    35    1
    41    34    36    1
    42    35    37    1
    43    37    43    1
    44    20    21   ar
    45    21    22   ar
@<TRIPOS>MOLECULE
*****
 43 45 0 0 0
SMALL
GASTEIGER

@<TRIPOS>ATOM
      1 P          22.7906   71.6522   -2.1997 P.3     1  UNL1        0.2189
      2 O          23.2444   73.1955   -2.3763 O.co2   1  UNL1       -0.4371
      3 O          23.4682   70.6829   -3.1234 O.2     1  UNL1       -0.5170
      4 O          21.1767   71.7078   -2.3005 O.3     1  UNL1       -0.3112
      5 C          20.5738   71.5717   -3.5743 C.3     1  UNL1        0.1811
      6 O          18.6122   72.3132   -4.7490 O.3     1  UNL1       -0.3308
      7 O          17.0381   71.1362   -2.4845 O.3     1  UNL1       -0.3794
      8 O          16.8130   69.2295   -4.4210 O.3     1  UNL1       -0.3779
      9 C          18.2464   70.6684   -3.0842 C.3     1  UNL1        0.1713
     10 C          17.9569   70.0576   -4.4389 C.3     1  UNL1        0.1895
     11 C          19.0873   71.8823   -3.4552 C.3     1  UNL1        0.1764
     12 C          17.7730   71.2901   -5.3078 C.3     1  UNL1        0.2383
     13 H          16.4842   70.3782   -2.2388 H       1  UNL1        0.2105
     14 H          16.9804   68.4592   -3.8548 H       1  UNL1        0.2106
     15 O          16.0209   70.3955   -7.3343 O.2     1  UNL1       -0.2464
     16 O          19.3666   70.4492  -10.5041 O.2     1  UNL1       -0.2670
     17 N          18.1598   71.0620   -6.6714 N.ar    1  UNL1       -0.2551
     18 N          17.6891   70.4222   -8.9109 N.ar    1  UNL1       -0.2743
     19 C          17.2022   70.6124   -7.6110 C.ar    1  UNL1        0.3323
     20 C          19.4734   71.2848   -7.0662 C.ar    1  UNL1        0.0869
     21 C          19.9226   71.0992   -8.3090 C.ar    1  UNL1        0.0795
     22 C          18.9863   70.6296   -9.3512 C.ar    1  UNL1        0.2626
     23 H          17.0414   70.1074   -9.5822 H       1  UNL1        0.1734
     24 O          23.0472   71.3761   -0.6279 O.3     1  UNL1       -0.2703
     25 P          22.1798   70.5539    0.4608 P.3     1  UNL1        0.2208
     26 O          23.3074   69.9533    1.4549 O.co2   1  UNL1       -0.4371
     27 O          21.2656   69.5215   -0.1328 O.2     1  UNL1       -0.5170
     28 O          21.4329   71.6888    1.3306 O.3     1  UNL1       -0.2858
     29 O          21.9791   73.9772    1.0580 O.3     1  UNL1       -0.3226
     30 O          20.0967   73.9945    4.7355 O.3     1  UNL1       -0.3794
     31 O          21.9875   71.8758    4.0497 O.3     1  UNL1       -0.3775
     32 O          18.7060   74.9781    2.3798 O.3     1  UNL1       -0.3792
     33 C          20.3515   73.5469    3.4041 C.3     1  UNL1        0.1718
     34 C          21.7987   73.0664    3.2938 C.3     1  UNL1        0.1968
     35 C          20.1072   74.7224    2.4551 C.3     1  UNL1        0.1723
     36 C          22.1760   72.7963    1.8366 C.3     1  UNL1        0.2706
     37 C          20.6243   74.4218    1.0513 C.3     1  UNL1        0.1830
     38 H          20.2456   73.2641    5.3565 H       1  UNL1        0.2105
     39 H          21.7497   72.0398    4.9754 H       1  UNL1        0.2106
     40 H          18.3643   75.1707    3.2669 H       1  UNL1        0.2106
     41 O          21.8883   75.7794   -0.3843 O.co2   1  UNL1       -0.5466
     42 O          19.7778   76.4800    0.1193 O.co2   1  UNL1       -0.5466
     43 C          20.6844   75.6684    0.2299 C.2     1  UNL1        0.0799
@<TRIPOS>UNITY_ATOM_ATTR
2 1
charge -1
26 1
charge -1
41 1
charge -1
@<TRIPOS>BOND
     1     1     4    1
     2     1    24    1
     3     1     2    1
     4     1     3    2
     5    25    28    1
     6    25    24    1
     7    25    26    1
     8    25    27    2
     9     6    11    1
    10     6    12    1
    11    29    36    1
    12    29    37    1
    13     7     9    1
    14     7    13    1
    15     8    10    1
    16     8    14    1
    17     4     5    1
    18    28    36    1
    19    30    33    1
    20    30    38    1
    21    31    34    1
    22    31    39    1
    23    32    35    1
    24    32    40    1
    25    41    43   ar
    26    15    19    2
    27    42    43   ar
    28    16    22    2
    29    17    12    1
    30    17    19   ar
    31    17    20   ar
    32    18    19   ar
    33    18    22   ar
    34    18    23    1
    35     9    10    1
    36     9    11    1
    37    10    12    1
    38    11     5    1
    39    33    34    1
    40    33    35    1
    41    34    36    1
    42    35    37    1
    43    37    43    1
    44    20    21   ar
    45    21    22   ar
@<TRIPOS>MOLECULE
*****
 43 45 0 0 0
SMALL
GASTEIGER

@<TRIPOS>ATOM
      1 P          21.9445   73.8655   -5.9706 P.3     1  UNL1        0.2189
      2 O          22.2689   75.4291   -6.2329 O.co2   1  UNL1       -0.4371
      3 O          22.8439   72.9027   -6.6888 O.2     1  UNL1       -0.5170
      4 O          20.3665   73.7349   -6.3035 O.3     1  UNL1       -0.3112
      5 C          19.8491   74.4433   -7.4148 C.3     1  UNL1        0.1811
      6 O          19.6598   72.1174   -7.9908 O.3     1  UNL1       -0.3308
      7 O          18.0043   73.0210  -10.3220 O.3     1  UNL1       -0.3794
      8 O          16.1179   72.1742   -8.5442 O.3     1  UNL1       -0.3779
      9 C          18.0682   73.5533   -8.9987 C.3     1  UNL1        0.1713
     10 C          17.3488   72.6384   -8.0304 C.3     1  UNL1        0.1895
     11 C          19.5103   73.4523   -8.5209 C.3     1  UNL1        0.1764
     12 C          18.3613   71.5219   -7.8399 C.3     1  UNL1        0.2383
     13 H          17.0921   73.0747  -10.6488 H       1  UNL1        0.2105
     14 H          15.5079   72.9220   -8.6470 H       1  UNL1        0.2106
     15 O          16.1667   69.9886   -6.9404 O.2     1  UNL1       -0.2464
     16 O          18.1300   69.2518   -2.8359 O.2     1  UNL1       -0.2670
     17 N          18.2728   70.9176   -6.5407 N.ar    1  UNL1       -0.2551
     18 N          17.1462   69.6239   -4.8966 N.ar    1  UNL1       -0.2743
     19 C          17.1264   70.1671   -6.1879 C.ar    1  UNL1        0.3323
     20 C          19.3138   71.0695   -5.6329 C.ar    1  UNL1        0.0869
     21 C          19.3184   70.5456   -4.4055 C.ar    1  UNL1        0.0795
     22 C          18.1578   69.7480   -3.9580 C.ar    1  UNL1        0.2626
     23 H          16.3579   69.0990   -4.6275 H       1  UNL1        0.1734
     24 O          21.9864   73.7516   -4.3587 O.3     1  UNL1       -0.2703
     25 P          23.0727   73.0758   -3.3703 P.3     1  UNL1        0.2208
     26 O          24.3190   74.1069   -3.4300 O.co2   1  UNL1       -0.4371
     27 O          23.4251   71.6588   -3.7192 O.2     1  UNL1       -0.5170
     28 O          22.4560   73.2677   -1.8920 O.3     1  UNL1       -0.2858
     29 O          21.6873   71.2611   -0.8961 O.3     1  UNL1       -0.3226
     30 O          20.2777   74.1055    1.7478 O.3     1  UNL1       -0.3794
     31 O          20.1064   74.5490   -1.1346 O.3     1  UNL1       -0.3775
     32 O          22.5980   72.4955    2.4370 O.3     1  UNL1       -0.3792
     33 C          21.1820   73.5464    0.7951 C.3     1  UNL1        0.1718
     34 C          20.4510   73.3096   -0.5266 C.3     1  UNL1        0.1968
     35 C          21.7045   72.2232    1.3590 C.3     1  UNL1        0.1723
     36 C          21.3185   72.5040   -1.4948 C.3     1  UNL1        0.2706
     37 C          22.4513   71.4213    0.2971 C.3     1  UNL1        0.1830
     38 H          19.9327   74.9474    1.4110 H       1  UNL1        0.2105
     39 H          19.5562   75.0655   -0.5256 H       1  UNL1        0.2106
     40 H          22.1350   73.0056    3.1197 H       1  UNL1        0.2106
     41 O          23.4282   69.9822    1.8707 O.co2   1  UNL1       -0.5466
     42 O          22.2196   69.0220    0.1926 O.co2   1  UNL1       -0.5466
     43 C          22.6666   70.0136    0.7492 C.2     1  UNL1        0.0799
@<TRIPOS>UNITY_ATOM_ATTR
2 1
charge -1
26 1
charge -1
41 1
charge -1
@<TRIPOS>BOND
     1     1     4    1
     2     1    24    1
     3     1     2    1
     4     1     3    2
     5    25    28    1
     6    25    24    1
     7    25    26    1
     8    25    27    2
     9     6    11    1
    10     6    12    1
    11    29    36    1
    12    29    37    1
    13     7     9    1
    14     7    13    1
    15     8    10    1
    16     8    14    1
    17     4     5    1
    18    28    36    1
    19    30    33    1
    20    30    38    1
    21    31    34    1
    22    31    39    1
    23    32    35    1
    24    32    40    1
    25    41    43   ar
    26    15    19    2
    27    42    43   ar
    28    16    22    2
    29    17    12    1
    30    17    19   ar
    31    17    20   ar
    32    18    19   ar
    33    18    22   ar
    34    18    23    1
    35     9    10    1
    36     9    11    1
    37    10    12    1
    38    11     5    1
    39    33    34    1
    40    33    35    1
    41    34    36    1
    42    35    37    1
    43    37    43    1
    44    20    21   ar
    45    21    22   ar
@<TRIPOS>MOLECULE
*****
 43 45 0 0 0
SMALL
GASTEIGER

@<TRIPOS>ATOM
      1 P          22.8496   71.9037   -3.0965 P.3     1  UNL1        0.2189
      2 O          23.5343   70.4596   -3.3505 O.co2   1  UNL1       -0.4371
      3 O          23.7986   73.0660   -3.1102 O.2     1  UNL1       -0.5170
      4 O          22.0082   71.6998   -1.7296 O.3     1  UNL1       -0.3112
      5 C          22.1890   72.6314   -0.6789 C.3     1  UNL1        0.1811
      6 O          20.3881   73.3677    0.7325 O.3     1  UNL1       -0.3308
      7 O          20.0804   75.6626   -1.1729 O.3     1  UNL1       -0.3794
      8 O          21.4442   76.7897    0.9022 O.3     1  UNL1       -0.3779
      9 C          21.2694   75.0027   -0.7374 C.3     1  UNL1        0.1713
     10 C          21.6000   75.4030    0.6848 C.3     1  UNL1        0.1895
     11 C          20.9556   73.5205   -0.5865 C.3     1  UNL1        0.1764
     12 C          20.6120   74.5709    1.4844 C.3     1  UNL1        0.2383
     13 H          20.2562   76.6113   -1.2764 H       1  UNL1        0.2105
     14 H          22.0956   77.2754    0.3715 H       1  UNL1        0.2106
     15 O          20.9275   71.9234    2.4158 O.2     1  UNL1       -0.2464
     16 O          22.5463   73.3546    6.4870 O.2     1  UNL1       -0.2670
     17 N          21.1138   74.2231    2.7836 N.ar    1  UNL1       -0.2551
     18 N          21.7325   72.6388    4.4430 N.ar    1  UNL1       -0.2743
     19 C          21.2331   72.8625    3.1532 C.ar    1  UNL1        0.3323
     20 C          21.4829   75.2230    3.6751 C.ar    1  UNL1        0.0869
     21 C          21.9575   74.9943    4.9012 C.ar    1  UNL1        0.0795
     22 C          22.1123   73.6001    5.3656 C.ar    1  UNL1        0.2626
     23 H          21.8226   71.6994    4.7236 H       1  UNL1        0.1734
     24 O          21.6964   71.9626   -4.2276 O.3     1  UNL1       -0.2703
     25 P          21.4101   73.0424   -5.3962 P.3     1  UNL1        0.2208
     26 O          22.6703   72.8506   -6.3940 O.co2   1  UNL1       -0.4371
     27 O          21.2201   74.4477   -4.9031 O.2     1  UNL1       -0.5170
     28 O          20.1523   72.4423   -6.2088 O.3     1  UNL1       -0.2858
     29 O          19.0746   70.3514   -5.9330 O.3     1  UNL1       -0.3226
     30 O          18.5057   71.0654   -9.9622 O.3     1  UNL1       -0.3794
     31 O          21.0795   71.6402   -8.7054 O.3     1  UNL1       -0.3775
     32 O          16.3089   71.4240   -8.0923 O.3     1  UNL1       -0.3792
     33 C          18.6669   71.4134   -8.5871 C.3     1  UNL1        0.1718
     34 C          20.0230   70.9137   -8.0884 C.3     1  UNL1        0.1968
     35 C          17.5337   70.7554   -7.7968 C.3     1  UNL1        0.1723
     36 C          20.1364   71.0625   -6.5706 C.3     1  UNL1        0.2706
     37 C          17.7830   70.8360   -6.2935 C.3     1  UNL1        0.1830
     38 H          19.2149   71.4725  -10.4843 H       1  UNL1        0.2105
     39 H          21.0136   71.5504   -9.6687 H       1  UNL1        0.2106
     40 H          16.1386   71.3802   -9.0462 H       1  UNL1        0.2106
     41 O          16.1644   69.1429   -6.4172 O.co2   1  UNL1       -0.5466
     42 O          16.7505   69.8717   -4.3376 O.co2   1  UNL1       -0.5466
     43 C          16.8628   69.9208   -5.5534 C.2     1  UNL1        0.0799
@<TRIPOS>UNITY_ATOM_ATTR
2 1
charge -1
26 1
charge -1
41 1
charge -1
@<TRIPOS>BOND
     1     1     4    1
     2     1    24    1
     3     1     2    1
     4     1     3    2
     5    25    28    1
     6    25    24    1
     7    25    26    1
     8    25    27    2
     9     6    11    1
    10     6    12    1
    11    29    36    1
    12    29    37    1
    13     7     9    1
    14     7    13    1
    15     8    10    1
    16     8    14    1
    17     4     5    1
    18    28    36    1
    19    30    33    1
    20    30    38    1
    21    31    34    1
    22    31    39    1
    23    32    35    1
    24    32    40    1
    25    41    43   ar
    26    15    19    2
    27    42    43   ar
    28    16    22    2
    29    17    12    1
    30    17    19   ar
    31    17    20   ar
    32    18    19   ar
    33    18    22   ar
    34    18    23    1
    35     9    10    1
    36     9    11    1
    37    10    12    1
    38    11     5    1
    39    33    34    1
    40    33    35    1
    41    34    36    1
    42    35    37    1
    43    37    43    1
    44    20    21   ar
    45    21    22   ar
@<TRIPOS>MOLECULE
*****
 43 45 0 0 0
SMALL
GASTEIGER

@<TRIPOS>ATOM
      1 P          22.6390   73.2784   -4.3218 P.3     1  UNL1        0.2189
      2 O          22.8186   74.2625   -5.5939 O.co2   1  UNL1       -0.4371
      3 O          23.8712   72.5158   -3.9319 O.2     1  UNL1       -0.5170
      4 O          21.3487   72.3803   -4.7044 O.3     1  UNL1       -0.3112
      5 C          20.8606   71.4564   -3.7491 C.3     1  UNL1        0.1811
      6 O          18.8011   72.1284   -4.7905 O.3     1  UNL1       -0.3308
      7 O          17.4204   70.8639   -2.4482 O.3     1  UNL1       -0.3794
      8 O          17.1526   68.9697   -4.3915 O.3     1  UNL1       -0.3779
      9 C          18.6070   70.4527   -3.1276 C.3     1  UNL1        0.1713
     10 C          18.2585   69.8445   -4.4696 C.3     1  UNL1        0.1895
     11 C          19.3731   71.7041   -3.5343 C.3     1  UNL1        0.1764
     12 C          17.9709   71.0773   -5.3094 C.3     1  UNL1        0.2383
     13 H          16.9142   70.0812   -2.1785 H       1  UNL1        0.2105
     14 H          17.3861   68.2011   -3.8467 H       1  UNL1        0.2106
     15 O          16.0514   70.5492   -7.3127 O.2     1  UNL1       -0.2464
     16 O          19.2742   70.3354  -10.6008 O.2     1  UNL1       -0.2670
     17 N          18.2809   70.8795   -6.6971 N.ar    1  UNL1       -0.2551
     18 N          17.6585   70.4422   -8.9483 N.ar    1  UNL1       -0.2743
     19 C          17.2422   70.6198   -7.6223 C.ar    1  UNL1        0.3323
     20 C          19.5999   70.9450   -7.1294 C.ar    1  UNL1        0.0869
     21 C          19.9812   70.7737   -8.3967 C.ar    1  UNL1        0.0795
     22 C          18.9578   70.4975   -9.4261 C.ar    1  UNL1        0.2626
     23 H          16.9534   70.2582   -9.6103 H       1  UNL1        0.1734
     24 O          22.0678   74.2660   -3.1767 O.3     1  UNL1       -0.2703
     25 P          22.8186   75.0431   -1.9742 P.3     1  UNL1        0.2208
     26 O          21.8973   76.3550   -1.7497 O.co2   1  UNL1       -0.4371
     27 O          24.2652   75.3418   -2.2424 O.2     1  UNL1       -0.5170
     28 O          22.5539   74.1316   -0.6697 O.3     1  UNL1       -0.2858
     29 O          21.5888   71.9920   -0.3541 O.3     1  UNL1       -0.3226
     30 O          20.2270   74.0275    2.9731 O.3     1  UNL1       -0.3794
     31 O          20.2589   75.3229    0.3549 O.3     1  UNL1       -0.3775
     32 O          22.3839   72.0949    3.2263 O.3     1  UNL1       -0.3792
     33 C          21.1451   73.7034    1.9290 C.3     1  UNL1        0.1718
     34 C          20.4791   73.9341    0.5722 C.3     1  UNL1        0.1968
     35 C          21.5392   72.2330    2.0853 C.3     1  UNL1        0.1723
     36 C          21.3441   73.3835   -0.5624 C.3     1  UNL1        0.2706
     37 C          22.2899   71.7239    0.8582 C.3     1  UNL1        0.1830
     38 H          19.9624   74.9575    2.8941 H       1  UNL1        0.2105
     39 H          19.7109   75.6790    1.0713 H       1  UNL1        0.2106
     40 H          21.9179   72.4156    4.0143 H       1  UNL1        0.2106
     41 O          23.4105   69.8216    1.6498 O.co2   1  UNL1       -0.5466
     42 O          21.6282   69.4796    0.2695 O.co2   1  UNL1       -0.5466
     43 C          22.3788   70.2326    0.8716 C.2     1  UNL1        0.0799
@<TRIPOS>UNITY_ATOM_ATTR
2 1
charge -1
26 1
charge -1
41 1
charge -1
@<TRIPOS>BOND
     1     1     4    1
     2     1    24    1
     3     1     2    1
     4     1     3    2
     5    25    28    1
     6    25    24    1
     7    25    26    1
     8    25    27    2
     9     6    11    1
    10     6    12    1
    11    29    36    1
    12    29    37    1
    13     7     9    1
    14     7    13    1
    15     8    10    1
    16     8    14    1
    17     4     5    1
    18    28    36    1
    19    30    33    1
    20    30    38    1
    21    31    34    1
    22    31    39    1
    23    32    35    1
    24    32    40    1
    25    41    43   ar
    26    15    19    2
    27    42    43   ar
    28    16    22    2
    29    17    12    1
    30    17    19   ar
    31    17    20   ar
    32    18    19   ar
    33    18    22   ar
    34    18    23    1
    35     9    10    1
    36     9    11    1
    37    10    12    1
    38    11     5    1
    39    33    34    1
    40    33    35    1
    41    34    36    1
    42    35    37    1
    43    37    43    1
    44    20    21   ar
    45    21    22   ar
@<TRIPOS>MOLECULE
*****
 43 45 0 0 0
SMALL
GASTEIGER

@<TRIPOS>ATOM
      1 P          21.5566   75.0730   -6.8730 P.3     1  UNL1        0.2189
      2 O          21.1550   76.5569   -7.3786 O.co2   1  UNL1       -0.4371
      3 O          23.0006   74.8988   -6.5035 O.2     1  UNL1       -0.5170
      4 O          21.0093   74.1016   -8.0455 O.3     1  UNL1       -0.3112
      5 C          21.2801   72.7148   -7.9560 C.3     1  UNL1        0.1811
      6 O          19.9131   70.7531   -8.2020 O.3     1  UNL1       -0.3308
      7 O          18.5084   72.2344  -10.3984 O.3     1  UNL1       -0.3794
      8 O          16.7874   72.5065   -8.3007 O.3     1  UNL1       -0.3779
      9 C          19.0459   72.7320   -9.1728 C.3     1  UNL1        0.1713
     10 C          18.1591   72.3345   -8.0119 C.3     1  UNL1        0.1895
     11 C          20.3255   71.9627   -8.8744 C.3     1  UNL1        0.1764
     12 C          18.5362   70.8765   -7.8118 C.3     1  UNL1        0.2383
     13 H          17.6900   72.7109  -10.6100 H       1  UNL1        0.2105
     14 H          16.5980   73.4510   -8.4192 H       1  UNL1        0.2106
     15 O          16.1706   69.8035   -6.7031 O.2     1  UNL1       -0.2464
     16 O          18.1232   69.3028   -2.5582 O.2     1  UNL1       -0.2670
     17 N          18.3987   70.4575   -6.4456 N.ar    1  UNL1       -0.2551
     18 N          17.1451   69.5561   -4.6395 N.ar    1  UNL1       -0.2743
     19 C          17.1669   69.9320   -5.9891 C.ar    1  UNL1        0.3323
     20 C          19.4760   70.5671   -5.5747 C.ar    1  UNL1        0.0869
     21 C          19.4401   70.2045   -4.2910 C.ar    1  UNL1        0.0795
     22 C          18.1901   69.6467   -3.7344 C.ar    1  UNL1        0.2626
     23 H          16.2975   69.1893   -4.2981 H       1  UNL1        0.1734
     24 O          20.5157   74.8070   -5.6653 O.3     1  UNL1       -0.2703
     25 P          20.6221   75.1230   -4.0834 P.3     1  UNL1        0.2208
     26 O          19.0743   75.2524   -3.6272 O.co2   1  UNL1       -0.4371
     27 O          21.4671   76.3182   -3.7496 O.2     1  UNL1       -0.5170
     28 O          21.1270   73.7405   -3.4229 O.3     1  UNL1       -0.2858
     29 O          21.9826   73.4579   -1.2326 O.3     1  UNL1       -0.3226
     30 O          23.8065   70.3513   -3.2550 O.3     1  UNL1       -0.3794
     31 O          23.5862   72.9919   -4.4850 O.3     1  UNL1       -0.3775
     32 O          21.5697   69.8202   -1.4758 O.3     1  UNL1       -0.3792
     33 C          22.7669   71.2862   -2.9667 C.3     1  UNL1        0.1718
     34 C          23.3023   72.7101   -3.1195 C.3     1  UNL1        0.1968
     35 C          22.2990   71.0448   -1.5297 C.3     1  UNL1        0.1723
     36 C          22.2917   73.7333   -2.5994 C.3     1  UNL1        0.2706
     37 C          21.3949   72.1729   -1.0413 C.3     1  UNL1        0.1830
     38 H          24.1198   70.4857   -4.1634 H       1  UNL1        0.2105
     39 H          24.2267   72.3463   -4.8216 H       1  UNL1        0.2106
     40 H          22.1339   69.0940   -1.7843 H       1  UNL1        0.2106
     41 O          21.5846   70.8877    0.9116 O.co2   1  UNL1       -0.5466
     42 O          20.7929   73.0140    1.1385 O.co2   1  UNL1       -0.5466
     43 C          21.2139   72.1040    0.4401 C.2     1  UNL1        0.0799
@<TRIPOS>UNITY_ATOM_ATTR
2 1
charge -1
26 1
charge -1
41 1
charge -1
@<TRIPOS>BOND
     1     1     4    1
     2     1    24    1
     3     1     2    1
     4     1     3    2
     5    25    28    1
     6    25    24    1
     7    25    26    1
     8    25    27    2
     9     6    11    1
    10     6    12    1
    11    29    36    1
    12    29    37    1
    13     7     9    1
    14     7    13    1
    15     8    10    1
    16     8    14    1
    17     4     5    1
    18    28    36    1
    19    30    33    1
    20    30    38    1
    21    31    34    1
    22    31    39    1
    23    32    35    1
    24    32    40    1
    25    41    43   ar
    26    15    19    2
    27    42    43   ar
    28    16    22    2
    29    17    12    1
    30    17    19   ar
    31    17    20   ar
    32    18    19   ar
    33    18    22   ar
    34    18    23    1
    35     9    10    1
    36     9    11    1
    37    10    12    1
    38    11     5    1
    39    33    34    1
    40    33    35    1
    41    34    36    1
    42    35    37    1
    43    37    43    1
    44    20    21   ar
    45    21    22   ar
@<TRIPOS>MOLECULE
*****
 43 45 0 0 0
SMALL
GASTEIGER

@<TRIPOS>ATOM
      1 P          22.0455   73.1894   -5.1163 P.3     1  UNL1        0.2189
      2 O          22.7771   74.4042   -5.8960 O.co2   1  UNL1       -0.4371
      3 O          22.9699   72.1494   -4.5543 O.2     1  UNL1       -0.5170
      4 O          20.9465   72.6536   -6.1761 O.3     1  UNL1       -0.3112
      5 C          20.7894   73.3510   -7.3981 C.3     1  UNL1        0.1811
      6 O          19.9992   71.1198   -7.8162 O.3     1  UNL1       -0.3308
      7 O          18.4389   72.2981  -10.0896 O.3     1  UNL1       -0.3794
      8 O          16.5449   72.0211   -8.1474 O.3     1  UNL1       -0.3779
      9 C          18.7305   72.8567   -8.8085 C.3     1  UNL1        0.1713
     10 C          17.8871   72.1908   -7.7420 C.3     1  UNL1        0.1895
     11 C          20.1374   72.4256   -8.4173 C.3     1  UNL1        0.1764
     12 C          18.6106   70.8692   -7.5472 C.3     1  UNL1        0.2383
     13 H          17.5447   72.5599  -10.3609 H       1  UNL1        0.2105
     14 H          16.1281   72.8906   -8.2576 H       1  UNL1        0.2106
     15 O          16.2386   69.7588   -6.4903 O.2     1  UNL1       -0.2464
     16 O          18.2162   68.9611   -2.4042 O.2     1  UNL1       -0.2670
     17 N          18.4778   70.3637   -6.2102 N.ar    1  UNL1       -0.2551
     18 N          17.2255   69.3635   -4.4559 N.ar    1  UNL1       -0.2743
     19 C          17.2422   69.8265   -5.7781 C.ar    1  UNL1        0.3323
     20 C          19.5634   70.4012   -5.3435 C.ar    1  UNL1        0.0869
     21 C          19.5323   69.9559   -4.0860 C.ar    1  UNL1        0.0795
     22 C          18.2789   69.3802   -3.5560 C.ar    1  UNL1        0.2626
     23 H          16.3755   68.9870   -4.1318 H       1  UNL1        0.1734
     24 O          21.1445   73.9556   -4.0145 O.3     1  UNL1       -0.2703
     25 P          21.5217   74.5394   -2.5549 P.3     1  UNL1        0.2208
     26 O          20.1903   75.3548   -2.1273 O.co2   1  UNL1       -0.4371
     27 O          22.7823   75.3543   -2.5246 O.2     1  UNL1       -0.5170
     28 O          21.5361   73.2477   -1.5886 O.3     1  UNL1       -0.2858
     29 O          23.2285   73.3664    0.0639 O.3     1  UNL1       -0.3226
     30 O          21.7923   69.5308    0.6054 O.3     1  UNL1       -0.3794
     31 O          22.2008   70.5930   -2.0852 O.3     1  UNL1       -0.3775
     32 O          21.0760   71.6351    2.4788 O.3     1  UNL1       -0.3792
     33 C          21.7145   70.9161    0.2696 C.3     1  UNL1        0.1718
     34 C          22.6627   71.2152   -0.8918 C.3     1  UNL1        0.1968
     35 C          22.1146   71.7254    1.5053 C.3     1  UNL1        0.1723
     36 C          22.7796   72.7216   -1.1286 C.3     1  UNL1        0.2706
     37 C          22.3341   73.1957    1.1612 C.3     1  UNL1        0.1830
     38 H          21.5423   68.9966   -0.1650 H       1  UNL1        0.2105
     39 H          22.1240   69.6370   -1.9420 H       1  UNL1        0.2106
     40 H          20.9262   70.7042    2.7064 H       1  UNL1        0.2106
     41 O          23.9410   74.7846    1.7899 O.co2   1  UNL1       -0.5466
     42 O          22.8195   73.7201    3.4657 O.co2   1  UNL1       -0.5466
     43 C          23.0327   73.9030    2.2766 C.2     1  UNL1        0.0799
@<TRIPOS>UNITY_ATOM_ATTR
2 1
charge -1
26 1
charge -1
41 1
charge -1
@<TRIPOS>BOND
     1     1     4    1
     2     1    24    1
     3     1     2    1
     4     1     3    2
     5    25    28    1
     6    25    24    1
     7    25    26    1
     8    25    27    2
     9     6    11    1
    10     6    12    1
    11    29    36    1
    12    29    37    1
    13     7     9    1
    14     7    13    1
    15     8    10    1
    16     8    14    1
    17     4     5    1
    18    28    36    1
    19    30    33    1
    20    30    38    1
    21    31    34    1
    22    31    39    1
    23    32    35    1
    24    32    40    1
    25    41    43   ar
    26    15    19    2
    27    42    43   ar
    28    16    22    2
    29    17    12    1
    30    17    19   ar
    31    17    20   ar
    32    18    19   ar
    33    18    22   ar
    34    18    23    1
    35     9    10    1
    36     9    11    1
    37    10    12    1
    38    11     5    1
    39    33    34    1
    40    33    35    1
    41    34    36    1
    42    35    37    1
    43    37    43    1
    44    20    21   ar
    45    21    22   ar
@<TRIPOS>MOLECULE
*****
 43 45 0 0 0
SMALL
GASTEIGER

@<TRIPOS>ATOM
      1 P          21.2365   73.1852   -5.7141 P.3     1  UNL1        0.2189
      2 O          20.0382   73.7333   -4.7746 O.co2   1  UNL1       -0.4371
      3 O          22.2222   74.2269   -6.1558 O.2     1  UNL1       -0.5170
      4 O          20.4701   72.3954   -6.9002 O.3     1  UNL1       -0.3112
      5 C          19.7011   71.2546   -6.5659 C.3     1  UNL1        0.1811
      6 O          17.4768   70.9396   -7.4209 O.3     1  UNL1       -0.3308
      7 O          18.7141   71.0267  -10.1509 O.3     1  UNL1       -0.3794
      8 O          17.6727   73.5332   -9.8886 O.3     1  UNL1       -0.3779
      9 C          19.0637   71.7596   -8.9766 C.3     1  UNL1        0.1713
     10 C          18.0412   72.8444   -8.7120 C.3     1  UNL1        0.1895
     11 C          18.8731   70.8425   -7.7763 C.3     1  UNL1        0.1764
     12 C          16.8907   72.0538   -8.1125 C.3     1  UNL1        0.2383
     13 H          18.8279   71.5922  -10.9313 H       1  UNL1        0.2105
     14 H          18.4387   74.0208  -10.2311 H       1  UNL1        0.2106
     15 O          16.4174   71.3123   -5.4288 O.2     1  UNL1       -0.2464
     16 O          13.9194   75.1027   -4.6307 O.2     1  UNL1       -0.2670
     17 N          16.1201   72.8284   -7.1814 N.ar    1  UNL1       -0.2551
     18 N          15.1728   73.2003   -5.0341 N.ar    1  UNL1       -0.2743
     19 C          15.9424   72.3663   -5.8558 C.ar    1  UNL1        0.3323
     20 C          15.5516   74.0311   -7.5830 C.ar    1  UNL1        0.0869
     21 C          14.8206   74.8152   -6.7883 C.ar    1  UNL1        0.0795
     22 C          14.5865   74.4046   -5.3883 C.ar    1  UNL1        0.2626
     23 H          15.0336   72.8986   -4.1074 H       1  UNL1        0.1734
     24 O          21.8711   71.9887   -4.8317 O.3     1  UNL1       -0.2703
     25 P          22.9295   72.0171   -3.6100 P.3     1  UNL1        0.2208
     26 O          24.0286   73.1008   -4.0979 O.co2   1  UNL1       -0.4371
     27 O          23.4996   70.6737   -3.2578 O.2     1  UNL1       -0.5170
     28 O          22.1442   72.7479   -2.4051 O.3     1  UNL1       -0.2858
     29 O          21.4537   71.0266   -0.9322 O.3     1  UNL1       -0.3226
     30 O          20.1428   74.4057    1.0505 O.3     1  UNL1       -0.3794
     31 O          19.8194   74.1676   -1.8432 O.3     1  UNL1       -0.3775
     32 O          22.5162   73.0022    1.9713 O.3     1  UNL1       -0.3792
     33 C          21.0048   73.6417    0.2072 C.3     1  UNL1        0.1718
     34 C          20.2108   73.1036   -0.9834 C.3     1  UNL1        0.1968
     35 C          21.5727   72.4861    1.0343 C.3     1  UNL1        0.1723
     36 C          21.0386   72.0962   -1.7826 C.3     1  UNL1        0.2706
     37 C          22.2752   71.4603    0.1495 C.3     1  UNL1        0.1830
     38 H          19.7700   75.1460    0.5462 H       1  UNL1        0.2105
     39 H          19.2940   74.8108   -1.3425 H       1  UNL1        0.2106
     40 H          22.0817   73.6564    2.5406 H       1  UNL1        0.2106
     41 O          21.6513   69.2326    0.5362 O.co2   1  UNL1       -0.5466
     42 O          23.4126   70.0428    1.7364 O.co2   1  UNL1       -0.5466
     43 C          22.5317   70.1963    0.9037 C.2     1  UNL1        0.0799
@<TRIPOS>UNITY_ATOM_ATTR
2 1
charge -1
26 1
charge -1
41 1
charge -1
@<TRIPOS>BOND
     1     1     4    1
     2     1    24    1
     3     1     2    1
     4     1     3    2
     5    25    28    1
     6    25    24    1
     7    25    26    1
     8    25    27    2
     9     6    11    1
    10     6    12    1
    11    29    36    1
    12    29    37    1
    13     7     9    1
    14     7    13    1
    15     8    10    1
    16     8    14    1
    17     4     5    1
    18    28    36    1
    19    30    33    1
    20    30    38    1
    21    31    34    1
    22    31    39    1
    23    32    35    1
    24    32    40    1
    25    41    43   ar
    26    15    19    2
    27    42    43   ar
    28    16    22    2
    29    17    12    1
    30    17    19   ar
    31    17    20   ar
    32    18    19   ar
    33    18    22   ar
    34    18    23    1
    35     9    10    1
    36     9    11    1
    37    10    12    1
    38    11     5    1
    39    33    34    1
    40    33    35    1
    41    34    36    1
    42    35    37    1
    43    37    43    1
    44    20    21   ar
    45    21    22   ar
@<TRIPOS>MOLECULE
*****
 43 45 0 0 0
SMALL
GASTEIGER

@<TRIPOS>ATOM
      1 P          23.1305   73.7891   -3.2780 P.3     1  UNL1        0.2189
      2 O          23.7219   74.5631   -1.9858 O.co2   1  UNL1       -0.4371
      3 O          24.1110   72.9038   -3.9899 O.2     1  UNL1       -0.5170
      4 O          22.4724   74.9680   -4.1696 O.3     1  UNL1       -0.3112
      5 C          21.4958   74.6213   -5.1342 C.3     1  UNL1        0.1811
      6 O          21.3046   73.3779   -7.1824 O.3     1  UNL1       -0.3308
      7 O          23.5780   75.0517   -8.1932 O.3     1  UNL1       -0.3794
      8 O          21.4084   76.2355   -9.3453 O.3     1  UNL1       -0.3779
      9 C          22.4995   75.4177   -7.3321 C.3     1  UNL1        0.1713
     10 C          21.2169   75.5496   -8.1256 C.3     1  UNL1        0.1895
     11 C          22.1951   74.2298   -6.4296 C.3     1  UNL1        0.1764
     12 C          20.8201   74.0971   -8.3276 C.3     1  UNL1        0.2383
     13 H          23.7907   75.7951   -8.7795 H       1  UNL1        0.2105
     14 H          21.6592   77.1552   -9.1630 H       1  UNL1        0.2106
     15 O          19.5421   72.2929  -10.0848 O.2     1  UNL1       -0.2464
     16 O          15.3571   73.5217   -8.5949 O.2     1  UNL1       -0.2670
     17 N          19.3979   73.9253   -8.4195 N.ar    1  UNL1       -0.2551
     18 N          17.4589   72.9074   -9.3418 N.ar    1  UNL1       -0.2743
     19 C          18.8574   72.9921   -9.3356 C.ar    1  UNL1        0.3323
     20 C          18.5548   74.6743   -7.6076 C.ar    1  UNL1        0.0869
     21 C          17.2236   74.5823   -7.6248 C.ar    1  UNL1        0.0795
     22 C          16.5788   73.6315   -8.5540 C.ar    1  UNL1        0.2626
     23 H          17.0593   72.2659   -9.9728 H       1  UNL1        0.1734
     24 O          21.8395   73.0209   -2.6814 O.3     1  UNL1       -0.2703
     25 P          21.5896   71.4560   -2.3612 P.3     1  UNL1        0.2208
     26 O          21.5638   71.4091   -0.7433 O.co2   1  UNL1       -0.4371
     27 O          22.5907   70.5311   -2.9908 O.2     1  UNL1       -0.5170
     28 O          20.0609   71.1873   -2.8007 O.3     1  UNL1       -0.2858
     29 O          19.3797   71.8110   -4.9816 O.3     1  UNL1       -0.3226
     30 O          15.7475   71.2783   -3.0866 O.3     1  UNL1       -0.3794
     31 O          17.9453   72.6347   -1.7212 O.3     1  UNL1       -0.3775
     32 O          16.7314   69.2718   -4.9458 O.3     1  UNL1       -0.3792
     33 C          17.1289   71.0318   -3.3491 C.3     1  UNL1        0.1718
     34 C          17.9320   72.3100   -3.1065 C.3     1  UNL1        0.1968
     35 C          17.2613   70.5889   -4.8080 C.3     1  UNL1        0.1723
     36 C          19.3726   72.1519   -3.5948 C.3     1  UNL1        0.2706
     37 C          18.7198   70.5772   -5.2564 C.3     1  UNL1        0.1830
     38 H          15.6388   71.5613   -2.1649 H       1  UNL1        0.2105
     39 H          17.0344   72.7362   -1.4045 H       1  UNL1        0.2106
     40 H          15.8034   69.2655   -4.6635 H       1  UNL1        0.2106
     41 O          17.5832   70.4912   -7.3064 O.co2   1  UNL1       -0.5466
     42 O          19.8594   70.3753   -7.3735 O.co2   1  UNL1       -0.5466
     43 C          18.8167   70.4689   -6.7434 C.2     1  UNL1        0.0799
@<TRIPOS>UNITY_ATOM_ATTR
2 1
charge -1
26 1
charge -1
41 1
charge -1
@<TRIPOS>BOND
     1     1     4    1
     2     1    24    1
     3     1     2    1
     4     1     3    2
     5    25    28    1
     6    25    24    1
     7    25    26    1
     8    25    27    2
     9     6    11    1
    10     6    12    1
    11    29    36    1
    12    29    37    1
    13     7     9    1
    14     7    13    1
    15     8    10    1
    16     8    14    1
    17     4     5    1
    18    28    36    1
    19    30    33    1
    20    30    38    1
    21    31    34    1
    22    31    39    1
    23    32    35    1
    24    32    40    1
    25    41    43   ar
    26    15    19    2
    27    42    43   ar
    28    16    22    2
    29    17    12    1
    30    17    19   ar
    31    17    20   ar
    32    18    19   ar
    33    18    22   ar
    34    18    23    1
    35     9    10    1
    36     9    11    1
    37    10    12    1
    38    11     5    1
    39    33    34    1
    40    33    35    1
    41    34    36    1
    42    35    37    1
    43    37    43    1
    44    20    21   ar
    45    21    22   ar
@<TRIPOS>MOLECULE
*****
 43 45 0 0 0
SMALL
GASTEIGER

@<TRIPOS>ATOM
      1 P          19.0941   70.6827   -3.6655 P.3     1  UNL1        0.2189
      2 O          18.3386   69.7701   -2.5632 O.co2   1  UNL1       -0.4371
      3 O          18.7197   72.1358   -3.6492 O.2     1  UNL1       -0.5170
      4 O          18.8311   69.9051   -5.0598 O.3     1  UNL1       -0.3112
      5 C          17.7951   70.3673   -5.9069 C.3     1  UNL1        0.1811
      6 O          17.3721   71.2215   -8.1135 O.3     1  UNL1       -0.3308
      7 O          20.3030   70.8415   -8.6204 O.3     1  UNL1       -0.3794
      8 O          20.1238   73.5197   -8.1397 O.3     1  UNL1       -0.3779
      9 C          19.6381   71.2473   -7.4239 C.3     1  UNL1        0.1713
     10 C          19.1554   72.6766   -7.5514 C.3     1  UNL1        0.1895
     11 C          18.3287   70.4761   -7.3295 C.3     1  UNL1        0.1764
     12 C          17.9173   72.5154   -8.4168 C.3     1  UNL1        0.2383
     13 H          21.1427   71.3210   -8.7026 H       1  UNL1        0.2105
     14 H          20.8917   73.5903   -7.5504 H       1  UNL1        0.2106
     15 O          15.7531   72.1712   -6.6350 O.2     1  UNL1       -0.2464
     16 O          14.1687   76.4220   -7.4503 O.2     1  UNL1       -0.2670
     17 N          16.9244   73.5158   -8.1446 N.ar    1  UNL1       -0.2551
     18 N          14.9655   74.2883   -7.0435 N.ar    1  UNL1       -0.2743
     19 C          15.8778   73.2419   -7.2326 C.ar    1  UNL1        0.3323
     20 C          16.9938   74.7518   -8.7759 C.ar    1  UNL1        0.0869
     21 C          16.1169   75.7394   -8.5855 C.ar    1  UNL1        0.0795
     22 C          14.9926   75.5343   -7.6488 C.ar    1  UNL1        0.2626
     23 H          14.2268   74.1204   -6.4146 H       1  UNL1        0.1734
     24 O          20.6560   70.3864   -3.3731 O.3     1  UNL1       -0.2703
     25 P          21.9315   71.3780   -3.3143 P.3     1  UNL1        0.2208
     26 O          21.7853   72.2496   -4.6704 O.co2   1  UNL1       -0.4371
     27 O          23.2508   70.6763   -3.1694 O.2     1  UNL1       -0.5170
     28 O          21.5901   72.4139   -2.1256 O.3     1  UNL1       -0.2858
     29 O          21.2641   71.2169   -0.1081 O.3     1  UNL1       -0.3226
     30 O          20.4977   75.0977    1.0835 O.3     1  UNL1       -0.3794
     31 O          19.4813   74.1043   -1.4688 O.3     1  UNL1       -0.3775
     32 O          23.0129   73.8237    1.7915 O.3     1  UNL1       -0.3792
     33 C          21.1241   74.0698    0.3161 C.3     1  UNL1        0.1718
     34 C          20.0614   73.2888   -0.4573 C.3     1  UNL1        0.1968
     35 C          21.8668   73.1443    1.2824 C.3     1  UNL1        0.1723
     36 C          20.6633   72.0421   -1.1070 C.3     1  UNL1        0.2706
     37 C          22.3264   71.8660    0.5871 C.3     1  UNL1        0.1830
     38 H          20.0193   75.6983    0.4904 H       1  UNL1        0.2105
     39 H          19.0976   74.8974   -1.0637 H       1  UNL1        0.2106
     40 H          22.7342   74.6393    2.2364 H       1  UNL1        0.2106
     41 O          22.6346   71.3262    2.8488 O.co2   1  UNL1       -0.5466
     42 O          23.1410   69.7153    1.3166 O.co2   1  UNL1       -0.5466
     43 C          22.7485   70.8401    1.5879 C.2     1  UNL1        0.0799
@<TRIPOS>UNITY_ATOM_ATTR
2 1
charge -1
26 1
charge -1
41 1
charge -1
@<TRIPOS>BOND
     1     1     4    1
     2     1    24    1
     3     1     2    1
     4     1     3    2
     5    25    28    1
     6    25    24    1
     7    25    26    1
     8    25    27    2
     9     6    11    1
    10     6    12    1
    11    29    36    1
    12    29    37    1
    13     7     9    1
    14     7    13    1
    15     8    10    1
    16     8    14    1
    17     4     5    1
    18    28    36    1
    19    30    33    1
    20    30    38    1
    21    31    34    1
    22    31    39    1
    23    32    35    1
    24    32    40    1
    25    41    43   ar
    26    15    19    2
    27    42    43   ar
    28    16    22    2
    29    17    12    1
    30    17    19   ar
    31    17    20   ar
    32    18    19   ar
    33    18    22   ar
    34    18    23    1
    35     9    10    1
    36     9    11    1
    37    10    12    1
    38    11     5    1
    39    33    34    1
    40    33    35    1
    41    34    36    1
    42    35    37    1
    43    37    43    1
    44    20    21   ar
    45    21    22   ar
@<TRIPOS>MOLECULE
*****
 43 45 0 0 0
SMALL
GASTEIGER

@<TRIPOS>ATOM
      1 P          22.9487   72.7355   -3.4314 P.3     1  UNL1        0.2189
      2 O          23.4282   71.1940   -3.5445 O.co2   1  UNL1       -0.4371
      3 O          23.6996   73.5604   -2.4276 O.2     1  UNL1       -0.5170
      4 O          21.3510   72.6294   -3.1994 O.3     1  UNL1       -0.3112
      5 C          20.6882   71.4415   -3.5919 C.3     1  UNL1        0.1811
      6 O          18.6320   72.0540   -4.6758 O.3     1  UNL1       -0.3308
      7 O          17.2408   70.6944   -2.3938 O.3     1  UNL1       -0.3794
      8 O          17.0965   68.8281   -4.3768 O.3     1  UNL1       -0.3779
      9 C          18.4595   70.3414   -3.0485 C.3     1  UNL1        0.1713
     10 C          18.1696   69.7456   -4.4099 C.3     1  UNL1        0.1895
     11 C          19.1871   71.6284   -3.4124 C.3     1  UNL1        0.1764
     12 C          17.8566   70.9820   -5.2352 C.3     1  UNL1        0.2383
     13 H          16.7582   69.8881   -2.1516 H       1  UNL1        0.2105
     14 H          17.3452   68.0589   -3.8397 H       1  UNL1        0.2106
     15 O          15.9954   70.5755   -7.3201 O.2     1  UNL1       -0.2464
     16 O          19.3252   70.3813  -10.5011 O.2     1  UNL1       -0.2670
     17 N          18.2098   70.8221   -6.6174 N.ar    1  UNL1       -0.2551
     18 N          17.6556   70.4781   -8.9023 N.ar    1  UNL1       -0.2743
     19 C          17.1978   70.6229   -7.5860 C.ar    1  UNL1        0.3323
     20 C          19.5446   70.8650   -7.0016 C.ar    1  UNL1        0.0869
     21 C          19.9655   70.7255   -8.2602 C.ar    1  UNL1        0.0795
     22 C          18.9720   70.5128   -9.3331 C.ar    1  UNL1        0.2626
     23 H          16.9696   70.3363   -9.5941 H       1  UNL1        0.1734
     24 O          23.0605   73.2631   -4.9552 O.3     1  UNL1       -0.2703
     25 P          22.1985   74.3675   -5.7619 P.3     1  UNL1        0.2208
     26 O          22.1634   75.6253   -4.7437 O.co2   1  UNL1       -0.4371
     27 O          20.8449   73.8905   -6.2026 O.2     1  UNL1       -0.5170
     28 O          23.1645   74.8430   -6.9633 O.3     1  UNL1       -0.2858
     29 O          23.2010   76.6698   -8.4702 O.3     1  UNL1       -0.3226
     30 O          24.2835   73.5306  -10.9282 O.3     1  UNL1       -0.3794
     31 O          22.1436   73.2053   -8.9662 O.3     1  UNL1       -0.3775
     32 O          26.2906   75.4200  -10.0048 O.3     1  UNL1       -0.3792
     33 C          24.2019   74.2576   -9.7023 C.3     1  UNL1        0.1718
     34 C          22.7347   74.4508   -9.3185 C.3     1  UNL1        0.1968
     35 C          24.8806   75.6134   -9.9105 C.3     1  UNL1        0.1723
     36 C          22.5999   75.4170   -8.1408 C.3     1  UNL1        0.2706
     37 C          24.5949   76.5633   -8.7509 C.3     1  UNL1        0.1830
     38 H          23.8585   72.6652  -10.8200 H       1  UNL1        0.2105
     39 H          22.2258   72.5873   -9.7090 H       1  UNL1        0.2106
     40 H          26.4859   74.8171  -10.7390 H       1  UNL1        0.2106
     41 O          24.2187   78.4161  -10.1391 O.co2   1  UNL1       -0.5466
     42 O          25.8403   78.6199   -8.5491 O.co2   1  UNL1       -0.5466
     43 C          24.9734   77.9640   -9.1071 C.2     1  UNL1        0.0799
@<TRIPOS>UNITY_ATOM_ATTR
2 1
charge -1
26 1
charge -1
41 1
charge -1
@<TRIPOS>BOND
     1     1     4    1
     2     1    24    1
     3     1     2    1
     4     1     3    2
     5    25    28    1
     6    25    24    1
     7    25    26    1
     8    25    27    2
     9     6    11    1
    10     6    12    1
    11    29    36    1
    12    29    37    1
    13     7     9    1
    14     7    13    1
    15     8    10    1
    16     8    14    1
    17     4     5    1
    18    28    36    1
    19    30    33    1
    20    30    38    1
    21    31    34    1
    22    31    39    1
    23    32    35    1
    24    32    40    1
    25    41    43   ar
    26    15    19    2
    27    42    43   ar
    28    16    22    2
    29    17    12    1
    30    17    19   ar
    31    17    20   ar
    32    18    19   ar
    33    18    22   ar
    34    18    23    1
    35     9    10    1
    36     9    11    1
    37    10    12    1
    38    11     5    1
    39    33    34    1
    40    33    35    1
    41    34    36    1
    42    35    37    1
    43    37    43    1
    44    20    21   ar
    45    21    22   ar
@<TRIPOS>MOLECULE
*****
 43 45 0 0 0
SMALL
GASTEIGER

@<TRIPOS>ATOM
      1 P          19.1325   74.2830   -1.5701 P.3     1  UNL1        0.2189
      2 O          17.7989   75.0319   -1.0412 O.co2   1  UNL1       -0.4371
      3 O          19.8368   74.9689   -2.7038 O.2     1  UNL1       -0.5170
      4 O          18.6385   72.7702   -1.8623 O.3     1  UNL1       -0.3112
      5 C          17.5622   72.5719   -2.7604 C.3     1  UNL1        0.1811
      6 O          16.8505   70.8235   -4.2484 O.3     1  UNL1       -0.3308
      7 O          18.1380   68.9172   -2.3248 O.3     1  UNL1       -0.3794
      8 O          19.9970   69.1059   -4.3110 O.3     1  UNL1       -0.3779
      9 C          18.5510   70.2284   -2.7105 C.3     1  UNL1        0.1713
     10 C          19.1333   70.2047   -4.1079 C.3     1  UNL1        0.1895
     11 C          17.3016   71.0776   -2.9003 C.3     1  UNL1        0.1764
     12 C          17.8837   70.1332   -4.9690 C.3     1  UNL1        0.2383
     13 H          18.9194   68.3561   -2.1977 H       1  UNL1        0.2105
     14 H          20.7769   69.1980   -3.7407 H       1  UNL1        0.2106
     15 O          16.1234   69.8286   -7.1565 O.2     1  UNL1       -0.2464
     16 O          18.6675   72.5955   -9.8240 O.2     1  UNL1       -0.2670
     17 N          18.0621   70.7626   -6.2469 N.ar    1  UNL1       -0.2551
     18 N          17.3927   71.2062   -8.4833 N.ar    1  UNL1       -0.2743
     19 C          17.1195   70.5438   -7.2792 C.ar    1  UNL1        0.3323
     20 C          19.1591   71.5868   -6.4670 C.ar    1  UNL1        0.0869
     21 C          19.4061   72.2114   -7.6201 C.ar    1  UNL1        0.0795
     22 C          18.4704   72.0351   -8.7500 C.ar    1  UNL1        0.2626
     23 H          16.7516   71.0675   -9.2175 H       1  UNL1        0.1734
     24 O          20.0163   74.1235   -0.2262 O.3     1  UNL1       -0.2703
     25 P          20.8498   75.2114    0.6314 P.3     1  UNL1        0.2208
     26 O          19.6908   76.0657    1.3712 O.co2   1  UNL1       -0.4371
     27 O          21.8031   76.0378   -0.1825 O.2     1  UNL1       -0.5170
     28 O          21.5430   74.3580    1.8119 O.3     1  UNL1       -0.2858
     29 O          22.9261   72.4371    1.7337 O.3     1  UNL1       -0.3226
     30 O          23.3614   73.9425   -2.0889 O.3     1  UNL1       -0.3794
     31 O          23.3585   75.7356    0.2174 O.3     1  UNL1       -0.3775
     32 O          21.6907   71.6100   -1.6207 O.3     1  UNL1       -0.3792
     33 C          22.6789   73.6731   -0.8643 C.3     1  UNL1        0.1718
     34 C          23.4373   74.3171    0.2966 C.3     1  UNL1        0.1968
     35 C          22.6161   72.1550   -0.6820 C.3     1  UNL1        0.1723
     36 C          22.8692   73.8610    1.6412 C.3     1  UNL1        0.2706
     37 C          22.1603   71.7812    0.7255 C.3     1  UNL1        0.1830
     38 H          23.4135   74.9016   -2.2260 H       1  UNL1        0.2105
     39 H          23.7171   76.0320   -0.6334 H       1  UNL1        0.2106
     40 H          21.9693   71.8409   -2.5207 H       1  UNL1        0.2106
     41 O          21.4429   69.5654    0.4485 O.co2   1  UNL1       -0.5466
     42 O          23.3658   69.8963    1.6284 O.co2   1  UNL1       -0.5466
     43 C          22.4147   70.3346    0.9989 C.2     1  UNL1        0.0799
@<TRIPOS>UNITY_ATOM_ATTR
2 1
charge -1
26 1
charge -1
41 1
charge -1
@<TRIPOS>BOND
     1     1     4    1
     2     1    24    1
     3     1     2    1
     4     1     3    2
     5    25    28    1
     6    25    24    1
     7    25    26    1
     8    25    27    2
     9     6    11    1
    10     6    12    1
    11    29    36    1
    12    29    37    1
    13     7     9    1
    14     7    13    1
    15     8    10    1
    16     8    14    1
    17     4     5    1
    18    28    36    1
    19    30    33    1
    20    30    38    1
    21    31    34    1
    22    31    39    1
    23    32    35    1
    24    32    40    1
    25    41    43   ar
    26    15    19    2
    27    42    43   ar
    28    16    22    2
    29    17    12    1
    30    17    19   ar
    31    17    20   ar
    32    18    19   ar
    33    18    22   ar
    34    18    23    1
    35     9    10    1
    36     9    11    1
    37    10    12    1
    38    11     5    1
    39    33    34    1
    40    33    35    1
    41    34    36    1
    42    35    37    1
    43    37    43    1
    44    20    21   ar
    45    21    22   ar
@<TRIPOS>MOLECULE
*****
 43 45 0 0 0
SMALL
GASTEIGER

@<TRIPOS>ATOM
      1 P          21.0993   73.0693   -5.6413 P.3     1  UNL1        0.2189
      2 O          21.0050   74.6487   -5.9810 O.co2   1  UNL1       -0.4371
      3 O          22.4834   72.5639   -5.3572 O.2     1  UNL1       -0.5170
      4 O          20.3320   72.3597   -6.8764 O.3     1  UNL1       -0.3112
      5 C          19.7176   71.1029   -6.6584 C.3     1  UNL1        0.1811
      6 O          17.5032   70.8886   -7.5684 O.3     1  UNL1       -0.3308
      7 O          18.8099   70.9222  -10.2670 O.3     1  UNL1       -0.3794
      8 O          17.8756   73.4727  -10.0256 O.3     1  UNL1       -0.3779
      9 C          19.1630   71.6379   -9.0830 C.3     1  UNL1        0.1713
     10 C          18.1839   72.7671   -8.8416 C.3     1  UNL1        0.1895
     11 C          18.9020   70.7292   -7.8895 C.3     1  UNL1        0.1764
     12 C          16.9847   72.0285   -8.2720 C.3     1  UNL1        0.2383
     13 H          18.9681   71.4827  -11.0432 H       1  UNL1        0.2105
     14 H          18.6709   73.9258  -10.3483 H       1  UNL1        0.2106
     15 O          14.9747   73.8546   -9.0477 O.2     1  UNL1       -0.2464
     16 O          14.1421   75.0740   -4.6815 O.2     1  UNL1       -0.2670
     17 N          16.2269   72.8361   -7.3586 N.ar    1  UNL1       -0.2551
     18 N          14.5627   74.4609   -6.8724 N.ar    1  UNL1       -0.2743
     19 C          15.2398   73.7220   -7.8515 C.ar    1  UNL1        0.3323
     20 C          16.4629   72.7450   -5.9922 C.ar    1  UNL1        0.0869
     21 C          15.8093   73.4558   -5.0712 C.ar    1  UNL1        0.0795
     22 C          14.7626   74.4054   -5.5026 C.ar    1  UNL1        0.2626
     23 H          13.8722   75.0860   -7.1916 H       1  UNL1        0.1734
     24 O          20.0558   72.8981   -4.4187 O.3     1  UNL1       -0.2703
     25 P          20.0341   73.5555   -2.9418 P.3     1  UNL1        0.2208
     26 O          18.4535   73.7161   -2.6317 O.co2   1  UNL1       -0.4371
     27 O          20.8201   74.8291   -2.8231 O.2     1  UNL1       -0.5170
     28 O          20.5236   72.3727   -1.9601 O.3     1  UNL1       -0.2858
     29 O          22.5624   73.0186   -0.9426 O.3     1  UNL1       -0.3226
     30 O          22.0067   69.2335    0.6169 O.3     1  UNL1       -0.3794
     31 O          21.4655   69.7670   -2.2039 O.3     1  UNL1       -0.3775
     32 O          21.4918   71.5776    2.2573 O.3     1  UNL1       -0.3792
     33 C          21.6045   70.5034    0.1036 C.3     1  UNL1        0.1718
     34 C          22.1278   70.6676   -1.3235 C.3     1  UNL1        0.1968
     35 C          22.1883   71.5873    1.0126 C.3     1  UNL1        0.1723
     36 C          21.9165   72.0977   -1.8226 C.3     1  UNL1        0.2706
     37 C          22.0504   72.9725    0.3873 C.3     1  UNL1        0.1830
     38 H          21.6473   68.5289    0.0551 H       1  UNL1        0.2105
     39 H          21.5952   68.8577   -1.8931 H       1  UNL1        0.2106
     40 H          21.5717   70.7014    2.6656 H       1  UNL1        0.2106
     41 O          23.7699   74.5621    0.2551 O.co2   1  UNL1       -0.5466
     42 O          22.8269   74.2178    2.3024 O.co2   1  UNL1       -0.5466
     43 C          22.9003   73.9671    1.1087 C.2     1  UNL1        0.0799
@<TRIPOS>UNITY_ATOM_ATTR
2 1
charge -1
26 1
charge -1
41 1
charge -1
@<TRIPOS>BOND
     1     1     4    1
     2     1    24    1
     3     1     2    1
     4     1     3    2
     5    25    28    1
     6    25    24    1
     7    25    26    1
     8    25    27    2
     9     6    11    1
    10     6    12    1
    11    29    36    1
    12    29    37    1
    13     7     9    1
    14     7    13    1
    15     8    10    1
    16     8    14    1
    17     4     5    1
    18    28    36    1
    19    30    33    1
    20    30    38    1
    21    31    34    1
    22    31    39    1
    23    32    35    1
    24    32    40    1
    25    41    43   ar
    26    15    19    2
    27    42    43   ar
    28    16    22    2
    29    17    12    1
    30    17    19   ar
    31    17    20   ar
    32    18    19   ar
    33    18    22   ar
    34    18    23    1
    35     9    10    1
    36     9    11    1
    37    10    12    1
    38    11     5    1
    39    33    34    1
    40    33    35    1
    41    34    36    1
    42    35    37    1
    43    37    43    1
    44    20    21   ar
    45    21    22   ar
@<TRIPOS>MOLECULE
*****
 43 45 0 0 0
SMALL
GASTEIGER

@<TRIPOS>ATOM
      1 P          22.6618   70.4190   -0.0290 P.3     1  UNL1        0.2189
      2 O          21.6671   69.6072    0.9560 O.co2   1  UNL1       -0.4371
      3 O          24.0025   69.7797   -0.2430 O.2     1  UNL1       -0.5170
      4 O          22.6870   71.9137    0.5899 O.3     1  UNL1       -0.3112
      5 C          22.2071   72.1080    1.9076 C.3     1  UNL1        0.1811
      6 O          20.7020   73.5046    3.1574 O.3     1  UNL1       -0.3308
      7 O          19.6661   74.4431    0.5045 O.3     1  UNL1       -0.3794
      8 O          21.3150   76.4812    1.2551 O.3     1  UNL1       -0.3779
      9 C          20.9989   74.0991    0.8837 C.3     1  UNL1        0.1713
     10 C          21.5951   75.1884    1.7499 C.3     1  UNL1        0.1895
     11 C          20.9239   72.9269    1.8526 C.3     1  UNL1        0.1764
     12 C          20.9357   74.9204    3.0920 C.3     1  UNL1        0.2383
     13 H          19.6883   75.1900   -0.1146 H       1  UNL1        0.2105
     14 H          21.7571   76.6027    0.3996 H       1  UNL1        0.2106
     15 O          20.3177   77.0033    4.8965 O.2     1  UNL1       -0.2464
     16 O          24.1933   76.3209    7.2961 O.2     1  UNL1       -0.2670
     17 N          21.7656   75.3082    4.1974 N.ar    1  UNL1       -0.2551
     18 N          22.2491   76.6621    6.0893 N.ar    1  UNL1       -0.2743
     19 C          21.3635   76.3682    5.0441 C.ar    1  UNL1        0.3323
     20 C          22.9611   74.6408    4.4347 C.ar    1  UNL1        0.0869
     21 C          23.7947   74.9323    5.4352 C.ar    1  UNL1        0.0795
     22 C          23.4493   76.0273    6.3653 C.ar    1  UNL1        0.2626
     23 H          21.9916   77.3977    6.6909 H       1  UNL1        0.1734
     24 O          21.7785   70.5962   -1.3711 O.3     1  UNL1       -0.2703
     25 P          22.0570   71.4406   -2.7213 P.3     1  UNL1        0.2208
     26 O          23.3200   70.6743   -3.3829 O.co2   1  UNL1       -0.4371
     27 O          22.2735   72.9090   -2.4956 O.2     1  UNL1       -0.5170
     28 O          20.8147   71.0879   -3.6882 O.3     1  UNL1       -0.2858
     29 O          19.3336   71.8867   -5.3547 O.3     1  UNL1       -0.3226
     30 O          16.7551   71.1881   -2.2034 O.3     1  UNL1       -0.3794
     31 O          19.3562   72.4347   -1.7401 O.3     1  UNL1       -0.3775
     32 O          16.8476   69.3446   -4.4493 O.3     1  UNL1       -0.3792
     33 C          17.9063   70.9685   -3.0185 C.3     1  UNL1        0.1718
     34 C          18.7774   72.2249   -3.0229 C.3     1  UNL1        0.1968
     35 C          17.4278   70.6476   -4.4362 C.3     1  UNL1        0.1723
     36 C          19.8947   72.1124   -4.0610 C.3     1  UNL1        0.2706
     37 C          18.5820   70.6776   -5.4339 C.3     1  UNL1        0.1830
     38 H          17.0346   71.3938   -1.2974 H       1  UNL1        0.2105
     39 H          18.6528   72.5068   -1.0764 H       1  UNL1        0.2106
     40 H          16.1117   69.3120   -3.8183 H       1  UNL1        0.2106
     41 O          19.0973   70.7267   -7.7216 O.co2   1  UNL1       -0.5466
     42 O          16.8896   70.6738   -7.1536 O.co2   1  UNL1       -0.5466
     43 C          18.0697   70.6924   -6.8374 C.2     1  UNL1        0.0799
@<TRIPOS>UNITY_ATOM_ATTR
2 1
charge -1
26 1
charge -1
41 1
charge -1
@<TRIPOS>BOND
     1     1     4    1
     2     1    24    1
     3     1     2    1
     4     1     3    2
     5    25    28    1
     6    25    24    1
     7    25    26    1
     8    25    27    2
     9     6    11    1
    10     6    12    1
    11    29    36    1
    12    29    37    1
    13     7     9    1
    14     7    13    1
    15     8    10    1
    16     8    14    1
    17     4     5    1
    18    28    36    1
    19    30    33    1
    20    30    38    1
    21    31    34    1
    22    31    39    1
    23    32    35    1
    24    32    40    1
    25    41    43   ar
    26    15    19    2
    27    42    43   ar
    28    16    22    2
    29    17    12    1
    30    17    19   ar
    31    17    20   ar
    32    18    19   ar
    33    18    22   ar
    34    18    23    1
    35     9    10    1
    36     9    11    1
    37    10    12    1
    38    11     5    1
    39    33    34    1
    40    33    35    1
    41    34    36    1
    42    35    37    1
    43    37    43    1
    44    20    21   ar
    45    21    22   ar
@<TRIPOS>MOLECULE
*****
 43 45 0 0 0
SMALL
GASTEIGER

@<TRIPOS>ATOM
      1 P          22.9653   73.6955   -3.4986 P.3     1  UNL1        0.2189
      2 O          23.0802   74.5053   -2.1022 O.co2   1  UNL1       -0.4371
      3 O          24.2610   73.1490   -4.0226 O.2     1  UNL1       -0.5170
      4 O          22.1874   74.7206   -4.4794 O.3     1  UNL1       -0.3112
      5 C          21.1704   74.2101   -5.3217 C.3     1  UNL1        0.1811
      6 O          20.6955   73.5174   -7.5739 O.3     1  UNL1       -0.3308
      7 O          22.7939   75.4839   -8.4233 O.3     1  UNL1       -0.3794
      8 O          20.4766   76.8303   -8.9272 O.3     1  UNL1       -0.3779
      9 C          21.8472   75.5761   -7.3585 C.3     1  UNL1        0.1713
     10 C          20.4640   75.8514   -7.9093 C.3     1  UNL1        0.1895
     11 C          21.6800   74.1874   -6.7570 C.3     1  UNL1        0.1764
     12 C          20.0495   74.4820   -8.4199 C.3     1  UNL1        0.2383
     13 H          22.9173   76.3594   -8.8233 H       1  UNL1        0.2105
     14 H          20.7464   77.6837   -8.5518 H       1  UNL1        0.2106
     15 O          18.5788   72.9175  -10.2546 O.2     1  UNL1       -0.2464
     16 O          14.6051   73.7801   -8.0845 O.2     1  UNL1       -0.2670
     17 N          18.6295   74.2807   -8.3578 N.ar    1  UNL1       -0.2551
     18 N          16.6009   73.3494   -9.1726 N.ar    1  UNL1       -0.2743
     19 C          17.9875   73.4765   -9.3289 C.ar    1  UNL1        0.3323
     20 C          17.8885   74.8747   -7.3434 C.ar    1  UNL1        0.0869
     21 C          16.5674   74.7443   -7.2074 C.ar    1  UNL1        0.0795
     22 C          15.8204   73.9212   -8.1809 C.ar    1  UNL1        0.2626
     23 H          16.1316   72.7959   -9.8379 H       1  UNL1        0.1734
     24 O          21.8433   72.5769   -3.1782 O.3     1  UNL1       -0.2703
     25 P          21.9816   71.0048   -2.8275 P.3     1  UNL1        0.2208
     26 O          21.8268   70.9703   -1.2166 O.co2   1  UNL1       -0.4371
     27 O          23.2399   70.3675   -3.3417 O.2     1  UNL1       -0.5170
     28 O          20.6199   70.3405   -3.3817 O.3     1  UNL1       -0.2858
     29 O          18.8621   71.0542   -1.9640 O.3     1  UNL1       -0.3226
     30 O          16.8364   68.7182   -4.7039 O.3     1  UNL1       -0.3794
     31 O          19.4114   67.8481   -3.6329 O.3     1  UNL1       -0.3775
     32 O          16.6764   71.6168   -4.8568 O.3     1  UNL1       -0.3792
     33 C          17.8586   69.6064   -4.2520 C.3     1  UNL1        0.1718
     34 C          18.6540   68.9417   -3.1281 C.3     1  UNL1        0.1968
     35 C          17.1850   70.8832   -3.7443 C.3     1  UNL1        0.1723
     36 C          19.6030   69.9408   -2.4647 C.3     1  UNL1        0.2706
     37 C          18.1694   71.7684   -2.9853 C.3     1  UNL1        0.1830
     38 H          17.2409   67.8993   -5.0313 H       1  UNL1        0.2105
     39 H          18.8155   67.2103   -4.0555 H       1  UNL1        0.2106
     40 H          16.0486   71.0645   -5.3485 H       1  UNL1        0.2106
     41 O          16.1281   72.5348   -2.1208 O.co2   1  UNL1       -0.5466
     42 O          17.9675   73.8296   -1.7475 O.co2   1  UNL1       -0.5466
     43 C          17.4478   72.8305   -2.2215 C.2     1  UNL1        0.0799
@<TRIPOS>UNITY_ATOM_ATTR
2 1
charge -1
26 1
charge -1
41 1
charge -1
@<TRIPOS>BOND
     1     1     4    1
     2     1    24    1
     3     1     2    1
     4     1     3    2
     5    25    28    1
     6    25    24    1
     7    25    26    1
     8    25    27    2
     9     6    11    1
    10     6    12    1
    11    29    36    1
    12    29    37    1
    13     7     9    1
    14     7    13    1
    15     8    10    1
    16     8    14    1
    17     4     5    1
    18    28    36    1
    19    30    33    1
    20    30    38    1
    21    31    34    1
    22    31    39    1
    23    32    35    1
    24    32    40    1
    25    41    43   ar
    26    15    19    2
    27    42    43   ar
    28    16    22    2
    29    17    12    1
    30    17    19   ar
    31    17    20   ar
    32    18    19   ar
    33    18    22   ar
    34    18    23    1
    35     9    10    1
    36     9    11    1
    37    10    12    1
    38    11     5    1
    39    33    34    1
    40    33    35    1
    41    34    36    1
    42    35    37    1
    43    37    43    1
    44    20    21   ar
    45    21    22   ar
@<TRIPOS>MOLECULE
*****
 43 45 0 0 0
SMALL
GASTEIGER

@<TRIPOS>ATOM
      1 P          22.5839   72.6662   -3.4159 P.3     1  UNL1        0.2189
      2 O          21.8942   72.6461   -1.9520 O.co2   1  UNL1       -0.4371
      3 O          23.4758   71.4962   -3.7121 O.2     1  UNL1       -0.5170
      4 O          23.2854   74.1221   -3.4949 O.3     1  UNL1       -0.3112
      5 C          24.6910   74.2043   -3.3469 C.3     1  UNL1        0.1811
      6 O          26.3699   75.1785   -1.9292 O.3     1  UNL1       -0.3308
      7 O          24.8030   77.7265   -2.1387 O.3     1  UNL1       -0.3794
      8 O          26.8381   78.1313   -3.9081 O.3     1  UNL1       -0.3779
      9 C          25.0223   76.7169   -3.1242 C.3     1  UNL1        0.1713
     10 C          26.4379   76.8008   -3.6546 C.3     1  UNL1        0.1895
     11 C          25.0251   75.3666   -2.4207 C.3     1  UNL1        0.1764
     12 C          27.2335   76.1544   -2.5335 C.3     1  UNL1        0.2383
     13 H          24.7970   78.5985   -2.5645 H       1  UNL1        0.2105
     14 H          26.3024   78.4982   -4.6294 H       1  UNL1        0.2106
     15 O          27.4229   74.8030   -5.0062 O.2     1  UNL1       -0.2464
     16 O          31.8284   73.6730   -4.2589 O.2     1  UNL1       -0.2670
     17 N          28.4181   75.4982   -3.0100 N.ar    1  UNL1       -0.2551
     18 N          29.6166   74.2406   -4.6312 N.ar    1  UNL1       -0.2743
     19 C          28.4078   74.8480   -4.2667 C.ar    1  UNL1        0.3323
     20 C          29.5729   75.5043   -2.2372 C.ar    1  UNL1        0.0869
     21 C          30.7177   74.9211   -2.5981 C.ar    1  UNL1        0.0795
     22 C          30.7910   74.2194   -3.8964 C.ar    1  UNL1        0.2626
     23 H          29.6332   73.7799   -5.5011 H       1  UNL1        0.1734
     24 O          21.3191   72.8176   -4.4109 O.3     1  UNL1       -0.2703
     25 P          21.2167   73.3970   -5.9167 P.3     1  UNL1        0.2208
     26 O          22.5319   72.7881   -6.6376 O.co2   1  UNL1       -0.4371
     27 O          21.1048   74.8921   -5.9950 O.2     1  UNL1       -0.5170
     28 O          19.9822   72.5977   -6.5797 O.3     1  UNL1       -0.2858
     29 O          19.0572   70.4910   -6.0180 O.3     1  UNL1       -0.3226
     30 O          18.4420   70.6175  -10.1013 O.3     1  UNL1       -0.3794
     31 O          20.9668   71.5372   -8.9550 O.3     1  UNL1       -0.3775
     32 O          16.2235   71.0653   -8.2769 O.3     1  UNL1       -0.3792
     33 C          18.5766   71.1568   -8.7864 C.3     1  UNL1        0.1718
     34 C          19.9647   70.8263   -8.2373 C.3     1  UNL1        0.1968
     35 C          17.4929   70.5312   -7.9055 C.3     1  UNL1        0.1723
     36 C          20.0657   71.1844   -6.7539 C.3     1  UNL1        0.2706
     37 C          17.7344   70.8297   -6.4286 C.3     1  UNL1        0.1830
     38 H          19.1206   71.0007  -10.6792 H       1  UNL1        0.2105
     39 H          20.9083   71.3149   -9.8971 H       1  UNL1        0.2106
     40 H          16.0576   70.8823   -9.2149 H       1  UNL1        0.2106
     41 O          16.2102   69.0505   -6.3158 O.co2   1  UNL1       -0.5466
     42 O          16.7970   70.0437   -4.3490 O.co2   1  UNL1       -0.5466
     43 C          16.8817   69.9584   -5.5650 C.2     1  UNL1        0.0799
@<TRIPOS>UNITY_ATOM_ATTR
2 1
charge -1
26 1
charge -1
41 1
charge -1
@<TRIPOS>BOND
     1     1     4    1
     2     1    24    1
     3     1     2    1
     4     1     3    2
     5    25    28    1
     6    25    24    1
     7    25    26    1
     8    25    27    2
     9     6    11    1
    10     6    12    1
    11    29    36    1
    12    29    37    1
    13     7     9    1
    14     7    13    1
    15     8    10    1
    16     8    14    1
    17     4     5    1
    18    28    36    1
    19    30    33    1
    20    30    38    1
    21    31    34    1
    22    31    39    1
    23    32    35    1
    24    32    40    1
    25    41    43   ar
    26    15    19    2
    27    42    43   ar
    28    16    22    2
    29    17    12    1
    30    17    19   ar
    31    17    20   ar
    32    18    19   ar
    33    18    22   ar
    34    18    23    1
    35     9    10    1
    36     9    11    1
    37    10    12    1
    38    11     5    1
    39    33    34    1
    40    33    35    1
    41    34    36    1
    42    35    37    1
    43    37    43    1
    44    20    21   ar
    45    21    22   ar
@<TRIPOS>MOLECULE
*****
 43 45 0 0 0
SMALL
GASTEIGER

@<TRIPOS>ATOM
      1 P          22.5485   73.0327   -4.6654 P.3     1  UNL1        0.2189
      2 O          21.7706   74.4451   -4.5274 O.co2   1  UNL1       -0.4371
      3 O          23.9269   73.0080   -4.0727 O.2     1  UNL1       -0.5170
      4 O          22.4563   72.6910   -6.2442 O.3     1  UNL1       -0.3112
      5 C          21.4409   73.3107   -7.0120 C.3     1  UNL1        0.1811
      6 O          20.1236   71.3008   -7.0594 O.3     1  UNL1       -0.3308
      7 O          19.5564   71.9619   -9.9287 O.3     1  UNL1       -0.3794
      8 O          17.2796   72.7763   -8.6683 O.3     1  UNL1       -0.3779
      9 C          19.7060   72.8387   -8.8119 C.3     1  UNL1        0.1713
     10 C          18.4806   72.7719   -7.9253 C.3     1  UNL1        0.1895
     11 C          20.7866   72.2650   -7.9056 C.3     1  UNL1        0.1764
     12 C          18.7018   71.4673   -7.1791 C.3     1  UNL1        0.2383
     13 H          18.8710   72.3077  -10.5223 H       1  UNL1        0.2105
     14 H          17.1847   73.6277   -9.1244 H       1  UNL1        0.2106
     15 O          16.7786   69.6117   -6.2657 O.2     1  UNL1       -0.2464
     16 O          16.5435   71.6181   -2.1228 O.2     1  UNL1       -0.2670
     17 N          18.1212   71.4816   -5.8663 N.ar    1  UNL1       -0.2551
     18 N          16.6626   70.6134   -4.2035 N.ar    1  UNL1       -0.2743
     19 C          17.1631   70.5041   -5.5076 C.ar    1  UNL1        0.3323
     20 C          18.5024   72.4541   -4.9499 C.ar    1  UNL1        0.0869
     21 C          18.0165   72.5453   -3.7104 C.ar    1  UNL1        0.0795
     22 C          17.0103   71.5630   -3.2565 C.ar    1  UNL1        0.2626
     23 H          15.9926   69.9452   -3.9315 H       1  UNL1        0.1734
     24 O          21.5127   71.9820   -4.0051 O.3     1  UNL1       -0.2703
     25 P          21.7603   70.7231   -3.0215 P.3     1  UNL1        0.2208
     26 O          23.3508   70.4544   -3.1579 O.co2   1  UNL1       -0.4371
     27 O          20.9032   69.5280   -3.3231 O.2     1  UNL1       -0.5170
     28 O          21.5746   71.3223   -1.5352 O.3     1  UNL1       -0.2858
     29 O          23.2650   72.7213   -0.6440 O.3     1  UNL1       -0.3226
     30 O          21.1367   71.7084    2.7489 O.3     1  UNL1       -0.3794
     31 O          21.7277   69.6957    0.7157 O.3     1  UNL1       -0.3775
     32 O          20.8345   74.3489    1.5709 O.3     1  UNL1       -0.3792
     33 C          21.3190   71.9979    1.3630 C.3     1  UNL1        0.1718
     34 C          22.3023   70.9968    0.7561 C.3     1  UNL1        0.1968
     35 C          21.8681   73.4214    1.2454 C.3     1  UNL1        0.1723
     36 C          22.6989   71.4103   -0.6618 C.3     1  UNL1        0.2706
     37 C          22.3584   73.7143   -0.1697 C.3     1  UNL1        0.1830
     38 H          20.7882   70.8084    2.8484 H       1  UNL1        0.2105
     39 H          21.4734   69.4270    1.6121 H       1  UNL1        0.2106
     40 H          20.5136   74.1732    2.4692 H       1  UNL1        0.2106
     41 O          24.2349   74.8198   -1.0405 O.co2   1  UNL1       -0.5466
     42 O          22.9434   75.9736    0.4427 O.co2   1  UNL1       -0.5466
     43 C          23.1812   74.9611   -0.1986 C.2     1  UNL1        0.0799
@<TRIPOS>UNITY_ATOM_ATTR
2 1
charge -1
26 1
charge -1
41 1
charge -1
@<TRIPOS>BOND
     1     1     4    1
     2     1    24    1
     3     1     2    1
     4     1     3    2
     5    25    28    1
     6    25    24    1
     7    25    26    1
     8    25    27    2
     9     6    11    1
    10     6    12    1
    11    29    36    1
    12    29    37    1
    13     7     9    1
    14     7    13    1
    15     8    10    1
    16     8    14    1
    17     4     5    1
    18    28    36    1
    19    30    33    1
    20    30    38    1
    21    31    34    1
    22    31    39    1
    23    32    35    1
    24    32    40    1
    25    41    43   ar
    26    15    19    2
    27    42    43   ar
    28    16    22    2
    29    17    12    1
    30    17    19   ar
    31    17    20   ar
    32    18    19   ar
    33    18    22   ar
    34    18    23    1
    35     9    10    1
    36     9    11    1
    37    10    12    1
    38    11     5    1
    39    33    34    1
    40    33    35    1
    41    34    36    1
    42    35    37    1
    43    37    43    1
    44    20    21   ar
    45    21    22   ar
@<TRIPOS>MOLECULE
*****
 43 45 0 0 0
SMALL
GASTEIGER

@<TRIPOS>ATOM
      1 P          18.7000   70.3821   -3.7907 P.3     1  UNL1        0.2189
      2 O          19.6637   69.6154   -4.8406 O.co2   1  UNL1       -0.4371
      3 O          17.8411   69.4855   -2.9479 O.2     1  UNL1       -0.5170
      4 O          17.9084   71.4579   -4.7039 O.3     1  UNL1       -0.3112
      5 C          16.7759   72.1069   -4.1556 C.3     1  UNL1        0.1811
      6 O          17.9273   73.8145   -5.3952 O.3     1  UNL1       -0.3308
      7 O          15.6209   75.6048   -4.7118 O.3     1  UNL1       -0.3794
      8 O          15.0683   74.8754   -7.2806 O.3     1  UNL1       -0.3779
      9 C          15.6236   74.2083   -5.0093 C.3     1  UNL1        0.1713
     10 C          15.8346   73.9888   -6.4924 C.3     1  UNL1        0.1895
     11 C          16.8882   73.6038   -4.4147 C.3     1  UNL1        0.1764
     12 C          17.3290   74.2212   -6.6362 C.3     1  UNL1        0.2383
     13 H          14.8220   76.0130   -5.0818 H       1  UNL1        0.2105
     14 H          14.1246   74.6870   -7.1544 H       1  UNL1        0.2106
     15 O          16.9767   74.7940   -9.3792 O.2     1  UNL1       -0.2464
     16 O          19.5770   71.2067  -10.6495 O.2     1  UNL1       -0.2670
     17 N          17.9027   73.4532   -7.7048 N.ar    1  UNL1       -0.2551
     18 N          18.2713   73.0061  -10.0093 N.ar    1  UNL1       -0.2743
     19 C          17.6639   73.8257   -9.0488 C.ar    1  UNL1        0.3323
     20 C          18.6926   72.3467   -7.4174 C.ar    1  UNL1        0.0869
     21 C          19.2649   71.5752   -8.3437 C.ar    1  UNL1        0.0795
     22 C          19.0645   71.8952   -9.7723 C.ar    1  UNL1        0.2626
     23 H          18.1178   73.2444  -10.9521 H       1  UNL1        0.1734
     24 O          19.7329   71.3039   -2.9563 O.3     1  UNL1       -0.2703
     25 P          21.2496   71.0259   -2.4706 P.3     1  UNL1        0.2208
     26 O          22.1393   71.8322   -3.5563 O.co2   1  UNL1       -0.4371
     27 O          21.5986   69.5713   -2.3429 O.2     1  UNL1       -0.5170
     28 O          21.4046   71.8738   -1.1070 O.3     1  UNL1       -0.2858
     29 O          23.2415   73.0719   -0.2128 O.3     1  UNL1       -0.3226
     30 O          21.4338   71.6274    3.2097 O.3     1  UNL1       -0.3794
     31 O          21.7162   69.9247    0.8527 O.3     1  UNL1       -0.3775
     32 O          21.1327   74.4224    2.4689 O.3     1  UNL1       -0.3792
     33 C          21.4838   72.1154    1.8691 C.3     1  UNL1        0.1718
     34 C          22.3514   71.1872    1.0186 C.3     1  UNL1        0.1968
     35 C          22.0829   73.5233    1.9003 C.3     1  UNL1        0.1723
     36 C          22.6167   71.7961   -0.3589 C.3     1  UNL1        0.2706
     37 C          22.4360   74.0097    0.4977 C.3     1  UNL1        0.1830
     38 H          21.0564   70.7337    3.2148 H       1  UNL1        0.2105
     39 H          21.5446   69.5327    1.7229 H       1  UNL1        0.2106
     40 H          20.8994   74.1240    3.3619 H       1  UNL1        0.2106
     41 O          24.5588   74.9340    0.1221 O.co2   1  UNL1       -0.5466
     42 O          22.9509   76.3233    0.9490 O.co2   1  UNL1       -0.5466
     43 C          23.3081   75.2213    0.5603 C.2     1  UNL1        0.0799
@<TRIPOS>UNITY_ATOM_ATTR
2 1
charge -1
26 1
charge -1
41 1
charge -1
@<TRIPOS>BOND
     1     1     4    1
     2     1    24    1
     3     1     2    1
     4     1     3    2
     5    25    28    1
     6    25    24    1
     7    25    26    1
     8    25    27    2
     9     6    11    1
    10     6    12    1
    11    29    36    1
    12    29    37    1
    13     7     9    1
    14     7    13    1
    15     8    10    1
    16     8    14    1
    17     4     5    1
    18    28    36    1
    19    30    33    1
    20    30    38    1
    21    31    34    1
    22    31    39    1
    23    32    35    1
    24    32    40    1
    25    41    43   ar
    26    15    19    2
    27    42    43   ar
    28    16    22    2
    29    17    12    1
    30    17    19   ar
    31    17    20   ar
    32    18    19   ar
    33    18    22   ar
    34    18    23    1
    35     9    10    1
    36     9    11    1
    37    10    12    1
    38    11     5    1
    39    33    34    1
    40    33    35    1
    41    34    36    1
    42    35    37    1
    43    37    43    1
    44    20    21   ar
    45    21    22   ar
@<TRIPOS>MOLECULE
*****
 43 45 0 0 0
SMALL
GASTEIGER

@<TRIPOS>ATOM
      1 P          22.6220   73.4035   -4.6201 P.3     1  UNL1        0.2189
      2 O          21.7978   74.7835   -4.8076 O.co2   1  UNL1       -0.4371
      3 O          24.0539   73.5722   -4.2043 O.2     1  UNL1       -0.5170
      4 O          22.3830   72.6158   -6.0131 O.3     1  UNL1       -0.3112
      5 C          21.2435   72.9422   -6.7874 C.3     1  UNL1        0.1811
      6 O          19.0889   71.8783   -6.8464 O.3     1  UNL1       -0.3308
      7 O          20.3321   69.8824   -8.7071 O.3     1  UNL1       -0.3794
      8 O          18.9676   71.5162  -10.4113 O.3     1  UNL1       -0.3779
      9 C          20.5702   71.2859   -8.5973 C.3     1  UNL1        0.1713
     10 C          19.4113   72.0617   -9.1865 C.3     1  UNL1        0.1895
     11 C          20.4894   71.6622   -7.1242 C.3     1  UNL1        0.1764
     12 C          18.3686   71.9548   -8.0869 C.3     1  UNL1        0.2383
     13 H          20.3787   69.6181   -9.6396 H       1  UNL1        0.2105
     14 H          19.6663   71.6088  -11.0785 H       1  UNL1        0.2106
     15 O          19.1878   74.6144   -8.5683 O.2     1  UNL1       -0.2464
     16 O          14.9241   76.2389   -7.9157 O.2     1  UNL1       -0.2670
     17 N          17.4933   73.0920   -8.0492 N.ar    1  UNL1       -0.2551
     18 N          17.0636   75.4211   -8.2418 N.ar    1  UNL1       -0.2743
     19 C          18.0055   74.3858   -8.3058 C.ar    1  UNL1        0.3323
     20 C          16.1445   72.9199   -7.7625 C.ar    1  UNL1        0.0869
     21 C          15.2588   73.9165   -7.7052 C.ar    1  UNL1        0.0795
     22 C          15.7126   75.2994   -7.9600 C.ar    1  UNL1        0.2626
     23 H          17.3971   76.3311   -8.4148 H       1  UNL1        0.1734
     24 O          21.7100   72.5755   -3.5733 O.3     1  UNL1       -0.2703
     25 P          21.7912   71.0383   -3.0794 P.3     1  UNL1        0.2208
     26 O          23.3569   70.6720   -3.2662 O.co2   1  UNL1       -0.4371
     27 O          20.8499   70.1116   -3.7929 O.2     1  UNL1       -0.5170
     28 O          21.5776   71.1099   -1.4820 O.3     1  UNL1       -0.2858
     29 O          23.2112   72.6229   -0.6749 O.3     1  UNL1       -0.3226
     30 O          21.1549   71.6828    2.7828 O.3     1  UNL1       -0.3794
     31 O          21.8192   69.6021    0.8427 O.3     1  UNL1       -0.3775
     32 O          20.7276   74.2475    1.4826 O.3     1  UNL1       -0.3792
     33 C          21.3139   71.9127    1.3829 C.3     1  UNL1        0.1718
     34 C          22.3360   70.9275    0.8153 C.3     1  UNL1        0.1968
     35 C          21.7988   73.3516    1.1921 C.3     1  UNL1        0.1723
     36 C          22.7034   71.2891   -0.6245 C.3     1  UNL1        0.2706
     37 C          22.2651   73.5971   -0.2400 C.3     1  UNL1        0.1830
     38 H          20.8473   70.7742    2.9285 H       1  UNL1        0.2105
     39 H          21.5837   69.3661    1.7534 H       1  UNL1        0.2106
     40 H          20.4214   74.1015    2.3913 H       1  UNL1        0.2106
     41 O          23.4781   75.2596    0.8852 O.co2   1  UNL1       -0.5466
     42 O          23.2354   75.4954   -1.3697 O.co2   1  UNL1       -0.5466
     43 C          23.0318   74.8758   -0.3364 C.2     1  UNL1        0.0799
@<TRIPOS>UNITY_ATOM_ATTR
2 1
charge -1
26 1
charge -1
41 1
charge -1
@<TRIPOS>BOND
     1     1     4    1
     2     1    24    1
     3     1     2    1
     4     1     3    2
     5    25    28    1
     6    25    24    1
     7    25    26    1
     8    25    27    2
     9     6    11    1
    10     6    12    1
    11    29    36    1
    12    29    37    1
    13     7     9    1
    14     7    13    1
    15     8    10    1
    16     8    14    1
    17     4     5    1
    18    28    36    1
    19    30    33    1
    20    30    38    1
    21    31    34    1
    22    31    39    1
    23    32    35    1
    24    32    40    1
    25    41    43   ar
    26    15    19    2
    27    42    43   ar
    28    16    22    2
    29    17    12    1
    30    17    19   ar
    31    17    20   ar
    32    18    19   ar
    33    18    22   ar
    34    18    23    1
    35     9    10    1
    36     9    11    1
    37    10    12    1
    38    11     5    1
    39    33    34    1
    40    33    35    1
    41    34    36    1
    42    35    37    1
    43    37    43    1
    44    20    21   ar
    45    21    22   ar
