@<TRIPOS>MOLECULE
GDU
 43 45 0 0 0
SMALL
GASTEIGER

@<TRIPOS>ATOM
      1 P          20.5659   71.2387   -2.2967 P.3     1  UNL1        0.2189
      2 O          21.7710   70.4011   -2.4863 O.2     1  UNL1       -0.5170
      3 O          20.8297   72.7046   -2.9088 O.3     1  UNL1       -0.4371
      4 O          19.3165   70.5601   -3.0485 O.3     1  UNL1       -0.3112
      5 C          18.1426   71.2325   -2.5899 C.3     1  UNL1        0.1811
      6 C          16.7806   70.5489   -5.8463 C.3     1  UNL1        0.2383
      7 C          16.8723   69.1602   -5.1636 C.3     1  UNL1        0.1895
      8 O          15.8396   68.2913   -5.6345 O.3     1  UNL1       -0.3779
      9 C          16.6560   69.5176   -3.6700 C.3     1  UNL1        0.1713
     10 C          17.0050   71.0154   -3.5893 C.3     1  UNL1        0.1764
     11 O          17.4213   71.4319   -4.9013 O.3     1  UNL1       -0.3308
     12 O          15.2957   69.2931   -3.2945 O.3     1  UNL1       -0.3794
     13 H          15.9526   67.4484   -5.1733 H       1  UNL1        0.2106
     14 H          15.1216   68.3508   -3.4226 H       1  UNL1        0.2105
     15 N          17.5002   70.5479   -7.1211 N.ar    1  UNL1       -0.2551
     16 C          16.8113   70.5570   -8.2758 C.ar    1  UNL1        0.3323
     17 N          17.4487   70.5598   -9.4614 N.ar    1  UNL1       -0.2743
     18 C          18.7947   70.5435   -9.5098 C.ar    1  UNL1        0.2626
     19 C          19.5335   70.5280   -8.3014 C.ar    1  UNL1        0.0795
     20 C          18.8691   70.5298   -7.1262 C.ar    1  UNL1        0.0869
     21 O          15.5967   70.5722   -8.2481 O.2     1  UNL1       -0.2464
     22 O          19.3725   70.5412  -10.5824 O.2     1  UNL1       -0.2670
     23 H          16.9355   70.5708  -10.2850 H       1  UNL1        0.1734
     24 O          20.2435   71.3653   -0.7243 O.3     1  UNL1       -0.2703
     25 P          21.6531   71.2900    0.0486 P.3     1  UNL1        0.2208
     26 O          21.6570   70.1199    0.9541 O.2     1  UNL1       -0.5170
     27 O          22.8456   71.1421   -1.0238 O.3     1  UNL1       -0.4371
     28 O          21.8683   72.6344    0.9067 O.3     1  UNL1       -0.2858
     29 C          22.5411   72.2565    2.1084 C.3     1  UNL1        0.2704
     30 C          21.7491   72.7612    3.3156 C.3     1  UNL1        0.1967
     31 C          21.6189   74.2847    3.2249 C.3     1  UNL1        0.1715
     32 C          23.0191   74.8876    3.0651 C.3     1  UNL1        0.1694
     33 C          23.7145   74.2224    1.8747 C.3     1  UNL1        0.1761
     34 O          20.4496   72.1675    3.3177 O.3     1  UNL1       -0.3775
     35 O          21.0107   74.7864    4.4170 O.3     1  UNL1       -0.3794
     36 O          23.7759   74.6601    4.2549 O.3     1  UNL1       -0.3794
     37 O          23.8495   72.8227    2.1167 O.3     1  UNL1       -0.3258
     38 H          20.5800   71.2108    3.3685 H       1  UNL1        0.2106
     39 H          20.1407   74.3729    4.4827 H       1  UNL1        0.2105
     40 H          23.2990   75.0903    4.9765 H       1  UNL1        0.2105
     41 C          25.1011   74.8416    1.6852 C.3     1  UNL1        0.1693
     42 O          25.1742   75.4593    0.3990 O.3     1  UNL1       -0.3794
     43 H          26.0611   75.8369    0.3199 H       1  UNL1        0.2105
@<TRIPOS>BOND
     1    15    16   ar
     2    15    20   ar
     3    15     6    1
     4    16    17   ar
     5    16    21    2
     6    17    18   ar
     7    17    23    1
     8    18    19   ar
     9    18    22    2
    10    19    20   ar
    11     6     7    1
    12     6    11    1
    13     7     8    1
    14     7     9    1
    15     8    13    1
    16     9    10    1
    17     9    12    1
    18    10    11    1
    19    10     5    1
    20    12    14    1
    21     5     4    1
    22     4     1    1
    23     1     2    2
    24     1     3    1
    25     1    24    1
    26    24    25    1
    27    25    26    2
    28    25    27    1
    29    25    28    1
    30    28    29    1
    31    29    30    1
    32    29    37    1
    33    30    31    1
    34    30    34    1
    35    31    32    1
    36    31    35    1
    37    32    33    1
    38    32    36    1
    39    33    41    1
    40    33    37    1
    41    41    42    1
    42    34    38    1
    43    35    39    1
    44    36    40    1
    45    42    43    1
@<TRIPOS>MOLECULE
GDU
 43 45 0 0 0
SMALL
GASTEIGER

@<TRIPOS>ATOM
      1 P          20.9798   70.8388   -3.4830 P.3     1  UNL1        0.2189
      2 O          20.4974   69.5477   -4.0213 O.2     1  UNL1       -0.5170
      3 O          21.9895   71.5165   -4.5386 O.3     1  UNL1       -0.4371
      4 O          19.7284   71.8177   -3.2330 O.3     1  UNL1       -0.3112
      5 C          18.7186   71.0414   -2.5862 C.3     1  UNL1        0.1811
      6 C          17.0379   70.5820   -5.7313 C.3     1  UNL1        0.2383
      7 C          17.0750   69.1669   -5.0996 C.3     1  UNL1        0.1895
      8 O          15.9403   68.3977   -5.5045 O.3     1  UNL1       -0.3779
      9 C          17.0141   69.4863   -3.5832 C.3     1  UNL1        0.1713
     10 C          17.4875   70.9487   -3.4895 C.3     1  UNL1        0.1764
     11 O          17.8243   71.3785   -4.8199 O.3     1  UNL1       -0.3308
     12 O          15.6764   69.3544   -3.0982 O.3     1  UNL1       -0.3794
     13 H          16.0236   67.5327   -5.0795 H       1  UNL1        0.2106
     14 H          15.4173   68.4335   -3.2381 H       1  UNL1        0.2105
     15 N          17.6457   70.5708   -7.0629 N.ar    1  UNL1       -0.2551
     16 C          16.8639   70.4667   -8.1520 C.ar    1  UNL1        0.3323
     17 N          17.3972   70.4577   -9.3879 N.ar    1  UNL1       -0.2743
     18 C          18.7312   70.5434   -9.5534 C.ar    1  UNL1        0.2626
     19 C          19.5676   70.6477   -8.4151 C.ar    1  UNL1        0.0795
     20 C          19.0062   70.6587   -7.1874 C.ar    1  UNL1        0.0869
     21 O          15.6588   70.3891   -8.0185 O.2     1  UNL1       -0.2464
     22 O          19.2152   70.5305  -10.6715 O.2     1  UNL1       -0.2670
     23 H          16.8176   70.3862  -10.1629 H       1  UNL1        0.1734
     24 O          21.7505   70.5850   -2.0923 O.3     1  UNL1       -0.2703
     25 P          22.9597   71.6450   -2.0286 P.3     1  UNL1        0.2208
     26 O          24.1806   71.0352   -2.6001 O.2     1  UNL1       -0.5170
     27 O          22.5682   72.9569   -2.8771 O.3     1  UNL1       -0.4371
     28 O          23.2318   72.0592   -0.4975 O.3     1  UNL1       -0.2858
     29 C          23.1613   70.8603    0.2755 C.3     1  UNL1        0.2704
     30 C          21.9392   70.9175    1.1935 C.3     1  UNL1        0.1967
     31 C          22.0574   72.1427    2.1052 C.3     1  UNL1        0.1715
     32 C          23.4107   72.0904    2.8232 C.3     1  UNL1        0.1694
     33 C          24.5221   71.9462    1.7806 C.3     1  UNL1        0.1761
     34 O          20.7523   71.0188    0.4046 O.3     1  UNL1       -0.3775
     35 O          21.0002   72.1293    3.0668 O.3     1  UNL1       -0.3794
     36 O          23.4364   70.9739    3.7137 O.3     1  UNL1       -0.3794
     37 O          24.3472   70.7296    1.0559 O.3     1  UNL1       -0.3258
     38 H          20.7229   70.2325   -0.1574 H       1  UNL1        0.2106
     39 H          20.1714   72.1511    2.5718 H       1  UNL1        0.2105
     40 H          22.7184   71.1043    4.3468 H       1  UNL1        0.2105
     41 C          25.8806   71.9275    2.4851 C.3     1  UNL1        0.1693
     42 O          26.6651   70.8473    1.9764 O.3     1  UNL1       -0.3794
     43 H          27.5111   70.8712    2.4444 H       1  UNL1        0.2105
@<TRIPOS>BOND
     1    15    16   ar
     2    15    20   ar
     3    15     6    1
     4    16    17   ar
     5    16    21    2
     6    17    18   ar
     7    17    23    1
     8    18    19   ar
     9    18    22    2
    10    19    20   ar
    11     6     7    1
    12     6    11    1
    13     7     8    1
    14     7     9    1
    15     8    13    1
    16     9    10    1
    17     9    12    1
    18    10    11    1
    19    10     5    1
    20    12    14    1
    21     5     4    1
    22     4     1    1
    23     1     2    2
    24     1     3    1
    25     1    24    1
    26    24    25    1
    27    25    26    2
    28    25    27    1
    29    25    28    1
    30    28    29    1
    31    29    30    1
    32    29    37    1
    33    30    31    1
    34    30    34    1
    35    31    32    1
    36    31    35    1
    37    32    33    1
    38    32    36    1
    39    33    41    1
    40    33    37    1
    41    41    42    1
    42    34    38    1
    43    35    39    1
    44    36    40    1
    45    42    43    1
@<TRIPOS>MOLECULE
GDU
 43 45 0 0 0
SMALL
GASTEIGER

@<TRIPOS>ATOM
      1 P          20.4038   71.1476   -1.8047 P.3     1  UNL1        0.2189
      2 O          20.3007   72.6165   -1.6584 O.2     1  UNL1       -0.5170
      3 O          21.0009   70.5141   -0.4500 O.3     1  UNL1       -0.4371
      4 O          18.9450   70.5323   -2.0873 O.3     1  UNL1       -0.3112
      5 C          18.1015   71.6226   -2.4620 C.3     1  UNL1        0.1811
      6 C          16.8546   70.4850   -5.6367 C.3     1  UNL1        0.2383
      7 C          17.2300   69.1863   -4.8781 C.3     1  UNL1        0.1895
      8 O          16.3835   68.1036   -5.2709 O.3     1  UNL1       -0.3779
      9 C          16.9690   69.5852   -3.4023 C.3     1  UNL1        0.1713
     10 C          17.0151   71.1244   -3.4168 C.3     1  UNL1        0.1764
     11 O          17.3212   71.5334   -4.7611 O.3     1  UNL1       -0.3308
     12 O          15.6859   69.1204   -2.9786 O.3     1  UNL1       -0.3794
     13 H          16.6681   67.3295   -4.7653 H       1  UNL1        0.2106
     14 H          15.7003   68.1562   -3.0478 H       1  UNL1        0.2105
     15 N          17.5415   70.5475   -6.9279 N.ar    1  UNL1       -0.2551
     16 C          16.8277   70.4935   -8.0662 C.ar    1  UNL1        0.3323
     17 N          17.4344   70.5526   -9.2664 N.ar    1  UNL1       -0.2743
     18 C          18.7749   70.6574   -9.3462 C.ar    1  UNL1        0.2626
     19 C          19.5401   70.7096   -8.1554 C.ar    1  UNL1        0.0795
     20 C          18.9059   70.6527   -6.9650 C.ar    1  UNL1        0.0869
     21 O          15.6177   70.3994   -8.0101 O.2     1  UNL1       -0.2464
     22 O          19.3253   70.7061  -10.4321 O.2     1  UNL1       -0.2670
     23 H          16.9032   70.5165  -10.0777 H       1  UNL1        0.1734
     24 O          21.3822   70.7992   -3.0351 O.3     1  UNL1       -0.2703
     25 P          22.6226   71.8209   -2.9488 P.3     1  UNL1        0.2208
     26 O          22.6680   72.4286   -1.6005 O.2     1  UNL1       -0.5170
     27 O          23.9946   71.0234   -3.2239 O.3     1  UNL1       -0.4371
     28 O          22.4446   72.9773   -4.0539 O.3     1  UNL1       -0.2858
     29 C          21.4895   72.5009   -5.0029 C.3     1  UNL1        0.2704
     30 C          21.9779   72.8144   -6.4180 C.3     1  UNL1        0.1967
     31 C          22.1685   74.3280   -6.5558 C.3     1  UNL1        0.1715
     32 C          20.8665   75.0252   -6.1456 C.3     1  UNL1        0.1694
     33 C          20.4633   74.5451   -4.7492 C.3     1  UNL1        0.1761
     34 O          23.2209   72.1505   -6.6534 O.3     1  UNL1       -0.3775
     35 O          22.4823   74.6509   -7.9121 O.3     1  UNL1       -0.3794
     36 O          19.8371   74.7043   -7.0823 O.3     1  UNL1       -0.3794
     37 O          20.2347   73.1369   -4.7718 O.3     1  UNL1       -0.3258
     38 H          23.0555   71.2035   -6.5494 H       1  UNL1        0.2106
     39 H          23.2984   74.1830   -8.1296 H       1  UNL1        0.2105
     40 H          20.1360   75.0189   -7.9454 H       1  UNL1        0.2105
     41 C          19.1822   75.2612   -4.3158 C.3     1  UNL1        0.1693
     42 O          18.8846   74.9242   -2.9597 O.3     1  UNL1       -0.3794
     43 H          18.0730   75.3952   -2.7259 H       1  UNL1        0.2105
@<TRIPOS>BOND
     1    15    16   ar
     2    15    20   ar
     3    15     6    1
     4    16    17   ar
     5    16    21    2
     6    17    18   ar
     7    17    23    1
     8    18    19   ar
     9    18    22    2
    10    19    20   ar
    11     6     7    1
    12     6    11    1
    13     7     8    1
    14     7     9    1
    15     8    13    1
    16     9    10    1
    17     9    12    1
    18    10    11    1
    19    10     5    1
    20    12    14    1
    21     5     4    1
    22     4     1    1
    23     1     2    2
    24     1     3    1
    25     1    24    1
    26    24    25    1
    27    25    26    2
    28    25    27    1
    29    25    28    1
    30    28    29    1
    31    29    30    1
    32    29    37    1
    33    30    31    1
    34    30    34    1
    35    31    32    1
    36    31    35    1
    37    32    33    1
    38    32    36    1
    39    33    41    1
    40    33    37    1
    41    41    42    1
    42    34    38    1
    43    35    39    1
    44    36    40    1
    45    42    43    1
@<TRIPOS>MOLECULE
GDU
 43 45 0 0 0
SMALL
GASTEIGER

@<TRIPOS>ATOM
      1 P          21.0537   71.1514   -2.8843 P.3     1  UNL1        0.2189
      2 O          21.6909   70.7458   -1.6119 O.2     1  UNL1       -0.5170
      3 O          21.0189   69.8953   -3.8913 O.3     1  UNL1       -0.4371
      4 O          19.5520   71.6511   -2.5975 O.3     1  UNL1       -0.3112
      5 C          18.7458   70.4801   -2.4581 C.3     1  UNL1        0.1811
      6 C          17.0565   70.4641   -5.6319 C.3     1  UNL1        0.2383
      7 C          16.9425   69.0043   -5.1230 C.3     1  UNL1        0.1895
      8 O          15.7388   68.3930   -5.5928 O.3     1  UNL1       -0.3779
      9 C          16.9004   69.1987   -3.5849 C.3     1  UNL1        0.1713
     10 C          17.5202   70.5914   -3.3667 C.3     1  UNL1        0.1764
     11 O          17.9118   71.0954   -4.6554 O.3     1  UNL1       -0.3308
     12 O          15.5518   69.1645   -3.1138 O.3     1  UNL1       -0.3794
     13 H          15.7291   67.4912   -5.2429 H       1  UNL1        0.2106
     14 H          15.2010   68.2904   -3.3318 H       1  UNL1        0.2105
     15 N          17.6725   70.5033   -6.9592 N.ar    1  UNL1       -0.2551
     16 C          16.8961   70.4586   -8.0563 C.ar    1  UNL1        0.3323
     17 N          17.4370   70.4968   -9.2883 N.ar    1  UNL1       -0.2743
     18 C          18.7731   70.5707   -9.4423 C.ar    1  UNL1        0.2626
     19 C          19.6036   70.6126   -8.2958 C.ar    1  UNL1        0.0795
     20 C          19.0348   70.5773   -7.0720 C.ar    1  UNL1        0.0869
     21 O          15.6892   70.3923   -7.9331 O.2     1  UNL1       -0.2464
     22 O          19.2639   70.6004  -10.5571 O.2     1  UNL1       -0.2670
     23 H          16.8613   70.4679  -10.0690 H       1  UNL1        0.1734
     24 O          21.9008   72.3479   -3.5501 O.3     1  UNL1       -0.2703
     25 P          23.4300   72.1496   -3.0892 P.3     1  UNL1        0.2208
     26 O          23.7695   70.7097   -3.1135 O.2     1  UNL1       -0.5170
     27 O          24.4015   72.9466   -4.0966 O.3     1  UNL1       -0.4371
     28 O          23.6203   72.7217   -1.5970 O.3     1  UNL1       -0.2858
     29 C          22.9772   73.9963   -1.5561 C.3     1  UNL1        0.2704
     30 C          23.9730   75.0538   -1.0771 C.3     1  UNL1        0.1967
     31 C          24.4864   74.6622    0.3120 C.3     1  UNL1        0.1715
     32 C          23.2826   74.4350    1.2333 C.3     1  UNL1        0.1694
     33 C          22.3396   73.4220    0.5793 C.3     1  UNL1        0.1761
     34 O          25.0689   75.1280   -1.9907 O.3     1  UNL1       -0.3775
     35 O          25.3032   75.7117    0.8353 O.3     1  UNL1       -0.3794
     36 O          22.5968   75.6711    1.4372 O.3     1  UNL1       -0.3794
     37 O          21.8666   73.9378   -0.6641 O.3     1  UNL1       -0.3258
     38 H          24.6991   75.3695   -2.8508 H       1  UNL1        0.2106
     39 H          26.0383   75.8276    0.2200 H       1  UNL1        0.2105
     40 H          23.2288   76.2780    1.8441 H       1  UNL1        0.2105
     41 C          21.1506   73.1619    1.5070 C.3     1  UNL1        0.1693
     42 O          21.0701   71.7653    1.7966 O.3     1  UNL1       -0.3794
     43 H          20.3105   71.6443    2.3829 H       1  UNL1        0.2105
@<TRIPOS>BOND
     1    15    16   ar
     2    15    20   ar
     3    15     6    1
     4    16    17   ar
     5    16    21    2
     6    17    18   ar
     7    17    23    1
     8    18    19   ar
     9    18    22    2
    10    19    20   ar
    11     6     7    1
    12     6    11    1
    13     7     8    1
    14     7     9    1
    15     8    13    1
    16     9    10    1
    17     9    12    1
    18    10    11    1
    19    10     5    1
    20    12    14    1
    21     5     4    1
    22     4     1    1
    23     1     2    2
    24     1     3    1
    25     1    24    1
    26    24    25    1
    27    25    26    2
    28    25    27    1
    29    25    28    1
    30    28    29    1
    31    29    30    1
    32    29    37    1
    33    30    31    1
    34    30    34    1
    35    31    32    1
    36    31    35    1
    37    32    33    1
    38    32    36    1
    39    33    41    1
    40    33    37    1
    41    41    42    1
    42    34    38    1
    43    35    39    1
    44    36    40    1
    45    42    43    1
@<TRIPOS>MOLECULE
GDU
 43 45 0 0 0
SMALL
GASTEIGER

@<TRIPOS>ATOM
      1 P          20.7537   71.0496   -2.9587 P.3     1  UNL1        0.2189
      2 O          21.0439   70.4668   -1.6299 O.2     1  UNL1       -0.5170
      3 O          20.6610   69.8716   -4.0527 O.3     1  UNL1       -0.4371
      4 O          19.3553   71.8422   -2.9038 O.3     1  UNL1       -0.3112
      5 C          18.3757   70.9201   -2.4233 C.3     1  UNL1        0.1811
      6 C          16.8948   70.5692   -5.6807 C.3     1  UNL1        0.2383
      7 C          16.8898   69.1342   -5.0944 C.3     1  UNL1        0.1895
      8 O          15.7814   68.3829   -5.5945 O.3     1  UNL1       -0.3779
      9 C          16.7345   69.4045   -3.5752 C.3     1  UNL1        0.1713
     10 C          17.2035   70.8614   -3.4044 C.3     1  UNL1        0.1764
     11 O          17.6238   71.3328   -4.6964 O.3     1  UNL1       -0.3308
     12 O          15.3688   69.2619   -3.1795 O.3     1  UNL1       -0.3794
     13 H          15.8365   67.5042   -5.1935 H       1  UNL1        0.2106
     14 H          15.1174   68.3471   -3.3653 H       1  UNL1        0.2105
     15 N          17.5849   70.5990   -6.9713 N.ar    1  UNL1       -0.2551
     16 C          16.8739   70.5176   -8.1098 C.ar    1  UNL1        0.3323
     17 N          17.4836   70.5463   -9.3095 N.ar    1  UNL1       -0.2743
     18 C          18.8244   70.6477   -9.3885 C.ar    1  UNL1        0.2626
     19 C          19.5867   70.7285   -8.1975 C.ar    1  UNL1        0.0795
     20 C          18.9495   70.7017   -7.0077 C.ar    1  UNL1        0.0869
     21 O          15.6636   70.4263   -8.0544 O.2     1  UNL1       -0.2464
     22 O          19.3776   70.6690  -10.4739 O.2     1  UNL1       -0.2670
     23 H          16.9544   70.4908  -10.1210 H       1  UNL1        0.1734
     24 O          21.9331   72.0671   -3.3665 O.3     1  UNL1       -0.2703
     25 P          22.9126   72.1801   -2.0946 P.3     1  UNL1        0.2208
     26 O          23.6575   70.9121   -1.9319 O.2     1  UNL1       -0.5170
     27 O          23.9533   73.3876   -2.3246 O.3     1  UNL1       -0.4371
     28 O          22.0437   72.4668   -0.7706 O.3     1  UNL1       -0.2858
     29 C          22.9295   72.3398    0.3425 C.3     1  UNL1        0.2704
     30 C          22.1845   71.7008    1.5156 C.3     1  UNL1        0.1967
     31 C          20.9815   72.5767    1.8789 C.3     1  UNL1        0.1715
     32 C          21.4730   74.0084    2.1204 C.3     1  UNL1        0.1694
     33 C          22.2708   74.4734    0.8996 C.3     1  UNL1        0.1761
     34 O          21.7341   70.3970    1.1434 O.3     1  UNL1       -0.3775
     35 O          20.3613   72.0731    3.0638 O.3     1  UNL1       -0.3794
     36 O          22.3051   74.0386    3.2808 O.3     1  UNL1       -0.3794
     37 O          23.4070   73.6298    0.7173 O.3     1  UNL1       -0.3258
     38 H          22.5217   69.8839    0.9167 H       1  UNL1        0.2106
     39 H          20.0798   71.1700    2.8702 H       1  UNL1        0.2105
     40 H          21.7643   73.7335    4.0210 H       1  UNL1        0.2105
     41 C          22.7373   75.9147    1.1161 C.3     1  UNL1        0.1693
     42 O          22.0879   76.7711    0.1749 O.3     1  UNL1       -0.3794
     43 H          22.4079   77.6678    0.3452 H       1  UNL1        0.2105
@<TRIPOS>BOND
     1    15    16   ar
     2    15    20   ar
     3    15     6    1
     4    16    17   ar
     5    16    21    2
     6    17    18   ar
     7    17    23    1
     8    18    19   ar
     9    18    22    2
    10    19    20   ar
    11     6     7    1
    12     6    11    1
    13     7     8    1
    14     7     9    1
    15     8    13    1
    16     9    10    1
    17     9    12    1
    18    10    11    1
    19    10     5    1
    20    12    14    1
    21     5     4    1
    22     4     1    1
    23     1     2    2
    24     1     3    1
    25     1    24    1
    26    24    25    1
    27    25    26    2
    28    25    27    1
    29    25    28    1
    30    28    29    1
    31    29    30    1
    32    29    37    1
    33    30    31    1
    34    30    34    1
    35    31    32    1
    36    31    35    1
    37    32    33    1
    38    32    36    1
    39    33    41    1
    40    33    37    1
    41    41    42    1
    42    34    38    1
    43    35    39    1
    44    36    40    1
    45    42    43    1
@<TRIPOS>MOLECULE
GDU
 43 45 0 0 0
SMALL
GASTEIGER

@<TRIPOS>ATOM
      1 P          20.4478   71.7932   -1.1745 P.3     1  UNL1        0.2189
      2 O          20.9688   70.4116   -1.0788 O.2     1  UNL1       -0.5170
      3 O          21.3873   72.6539   -2.1593 O.3     1  UNL1       -0.4371
      4 O          18.9480   71.7627   -1.7546 O.3     1  UNL1       -0.3112
      5 C          18.8282   70.5687   -2.5295 C.3     1  UNL1        0.1811
      6 C          17.1053   70.4885   -5.6842 C.3     1  UNL1        0.2383
      7 C          16.9943   69.0400   -5.1433 C.3     1  UNL1        0.1895
      8 O          15.7847   68.4212   -5.5872 O.3     1  UNL1       -0.3779
      9 C          16.9688   69.2671   -3.6094 C.3     1  UNL1        0.1713
     10 C          17.5932   70.6630   -3.4273 C.3     1  UNL1        0.1764
     11 O          17.9719   71.1388   -4.7305 O.3     1  UNL1       -0.3308
     12 O          15.6252   69.2454   -3.1234 O.3     1  UNL1       -0.3794
     13 H          15.7772   67.5270   -5.2183 H       1  UNL1        0.2106
     14 H          15.2707   68.3675   -3.3191 H       1  UNL1        0.2105
     15 N          17.7072   70.4984   -7.0186 N.ar    1  UNL1       -0.2551
     16 C          16.9189   70.4376   -8.1062 C.ar    1  UNL1        0.3323
     17 N          17.4468   70.4487   -9.3444 N.ar    1  UNL1       -0.2743
     18 C          18.7815   70.5114   -9.5140 C.ar    1  UNL1        0.2626
     19 C          19.6246   70.5701   -8.3774 C.ar    1  UNL1        0.0795
     20 C          19.0687   70.5618   -7.1472 C.ar    1  UNL1        0.0869
     21 O          15.7130   70.3812   -7.9691 O.2     1  UNL1       -0.2464
     22 O          19.2605   70.5166  -10.6343 O.2     1  UNL1       -0.2670
     23 H          16.8625   70.4085  -10.1183 H       1  UNL1        0.1734
     24 O          20.4455   72.4674    0.2877 O.3     1  UNL1       -0.2703
     25 P          21.6350   71.7756    1.1223 P.3     1  UNL1        0.2208
     26 O          21.4567   70.3069    1.1098 O.2     1  UNL1       -0.5170
     27 O          23.0500   72.1496    0.4500 O.3     1  UNL1       -0.4371
     28 O          21.6064   72.3077    2.6409 O.3     1  UNL1       -0.2858
     29 C          21.8504   73.7141    2.5924 C.3     1  UNL1        0.2704
     30 C          22.9871   74.0670    3.5529 C.3     1  UNL1        0.1967
     31 C          22.5955   73.6345    4.9693 C.3     1  UNL1        0.1715
     32 C          21.2358   74.2535    5.3123 C.3     1  UNL1        0.1694
     33 C          20.2307   73.8844    4.2185 C.3     1  UNL1        0.1761
     34 O          24.1786   73.3862    3.1552 O.3     1  UNL1       -0.3775
     35 O          23.5809   74.0884    5.8996 O.3     1  UNL1       -0.3794
     36 O          21.3636   75.6738    5.3910 O.3     1  UNL1       -0.3794
     37 O          20.6657   74.4133    2.9667 O.3     1  UNL1       -0.3258
     38 H          24.3830   73.6828    2.2579 H       1  UNL1        0.2106
     39 H          24.4186   73.6852    5.6390 H       1  UNL1        0.2105
     40 H          22.0084   75.8588    6.0862 H       1  UNL1        0.2105
     41 C          18.8605   74.4691    4.5689 C.3     1  UNL1        0.1693
     42 O          18.7495   74.6036    5.9869 O.3     1  UNL1       -0.3794
     43 H          17.8746   74.9750    6.1651 H       1  UNL1        0.2105
@<TRIPOS>BOND
     1    15    16   ar
     2    15    20   ar
     3    15     6    1
     4    16    17   ar
     5    16    21    2
     6    17    18   ar
     7    17    23    1
     8    18    19   ar
     9    18    22    2
    10    19    20   ar
    11     6     7    1
    12     6    11    1
    13     7     8    1
    14     7     9    1
    15     8    13    1
    16     9    10    1
    17     9    12    1
    18    10    11    1
    19    10     5    1
    20    12    14    1
    21     5     4    1
    22     4     1    1
    23     1     2    2
    24     1     3    1
    25     1    24    1
    26    24    25    1
    27    25    26    2
    28    25    27    1
    29    25    28    1
    30    28    29    1
    31    29    30    1
    32    29    37    1
    33    30    31    1
    34    30    34    1
    35    31    32    1
    36    31    35    1
    37    32    33    1
    38    32    36    1
    39    33    41    1
    40    33    37    1
    41    41    42    1
    42    34    38    1
    43    35    39    1
    44    36    40    1
    45    42    43    1
@<TRIPOS>MOLECULE
GDU
 43 45 0 0 0
SMALL
GASTEIGER

@<TRIPOS>ATOM
      1 P          23.5495   72.3858   -3.8973 P.3     1  UNL1        0.2189
      2 O          24.0321   71.0448   -3.4998 O.2     1  UNL1       -0.5170
      3 O          24.7236   73.4656   -3.6773 O.3     1  UNL1       -0.4371
      4 O          23.1230   72.3653   -5.4480 O.3     1  UNL1       -0.3112
      5 C          22.5747   73.6508   -5.7435 C.3     1  UNL1        0.1811
      6 C          19.4524   72.4341   -7.0464 C.3     1  UNL1        0.2383
      7 C          19.1028   73.8069   -6.4171 C.3     1  UNL1        0.1895
      8 O          18.0205   74.4271   -7.1151 O.3     1  UNL1       -0.3779
      9 C          20.4192   74.6016   -6.6194 C.3     1  UNL1        0.1713
     10 C          21.4891   73.5108   -6.8120 C.3     1  UNL1        0.1764
     11 O          20.8344   72.2373   -6.6793 O.3     1  UNL1       -0.3308
     12 O          20.3280   75.4326   -7.7783 O.3     1  UNL1       -0.3794
     13 H          17.8535   75.2727   -6.6758 H       1  UNL1        0.2106
     14 H          19.6044   76.0541   -7.6211 H       1  UNL1        0.2105
     15 N          18.6129   71.3764   -6.4812 N.ar    1  UNL1       -0.2551
     16 C          17.6580   70.8071   -7.2377 C.ar    1  UNL1        0.3323
     17 N          16.8749   69.8303   -6.7433 N.ar    1  UNL1       -0.2743
     18 C          17.0301   69.4121   -5.4724 C.ar    1  UNL1        0.2626
     19 C          18.0282   70.0066   -4.6620 C.ar    1  UNL1        0.0795
     20 C          18.8025   70.9814   -5.1842 C.ar    1  UNL1        0.0869
     21 O          17.5064   71.1736   -8.3861 O.2     1  UNL1       -0.2464
     22 O          16.3187   68.5312   -5.0225 O.2     1  UNL1       -0.2670
     23 H          16.1935   69.4276   -7.3048 H       1  UNL1        0.1734
     24 O          22.2777   72.7867   -2.9949 O.3     1  UNL1       -0.2703
     25 P          22.3626   71.9053   -1.6511 P.3     1  UNL1        0.2208
     26 O          21.4623   70.7372   -1.7698 O.2     1  UNL1       -0.5170
     27 O          23.8759   71.3964   -1.4381 O.3     1  UNL1       -0.4371
     28 O          21.9169   72.8017   -0.3910 O.3     1  UNL1       -0.2858
     29 C          22.7913   72.4659    0.6872 C.3     1  UNL1        0.2704
     30 C          21.9889   71.7959    1.8037 C.3     1  UNL1        0.1967
     31 C          20.8928   72.7564    2.2753 C.3     1  UNL1        0.1715
     32 C          21.5413   74.0938    2.6503 C.3     1  UNL1        0.1694
     33 C          22.3767   74.5908    1.4679 C.3     1  UNL1        0.1761
     34 O          21.3944   70.5939    1.3108 O.3     1  UNL1       -0.3775
     35 O          20.2295   72.2055    3.4150 O.3     1  UNL1       -0.3794
     36 O          22.3801   73.9145    3.7923 O.3     1  UNL1       -0.3794
     37 O          23.4113   73.6511    1.1807 O.3     1  UNL1       -0.3258
     38 H          22.1188   70.0237    1.0192 H       1  UNL1        0.2106
     39 H          19.8484   71.3630    3.1369 H       1  UNL1        0.2105
     40 H          21.8144   73.5965    4.5080 H       1  UNL1        0.2105
     41 C          23.0012   75.9429    1.8194 C.3     1  UNL1        0.1693
     42 O          23.5327   76.5431    0.6369 O.3     1  UNL1       -0.3794
     43 H          23.9152   77.3911    0.9010 H       1  UNL1        0.2105
@<TRIPOS>BOND
     1    15    16   ar
     2    15    20   ar
     3    15     6    1
     4    16    17   ar
     5    16    21    2
     6    17    18   ar
     7    17    23    1
     8    18    19   ar
     9    18    22    2
    10    19    20   ar
    11     6     7    1
    12     6    11    1
    13     7     8    1
    14     7     9    1
    15     8    13    1
    16     9    10    1
    17     9    12    1
    18    10    11    1
    19    10     5    1
    20    12    14    1
    21     5     4    1
    22     4     1    1
    23     1     2    2
    24     1     3    1
    25     1    24    1
    26    24    25    1
    27    25    26    2
    28    25    27    1
    29    25    28    1
    30    28    29    1
    31    29    30    1
    32    29    37    1
    33    30    31    1
    34    30    34    1
    35    31    32    1
    36    31    35    1
    37    32    33    1
    38    32    36    1
    39    33    41    1
    40    33    37    1
    41    41    42    1
    42    34    38    1
    43    35    39    1
    44    36    40    1
    45    42    43    1
@<TRIPOS>MOLECULE
GDU
 43 45 0 0 0
SMALL
GASTEIGER

@<TRIPOS>ATOM
      1 P          20.7870   71.3987   -1.0462 P.3     1  UNL1        0.2189
      2 O          21.1879   72.8103   -0.8557 O.2     1  UNL1       -0.5170
      3 O          20.9373   70.6056    0.3472 O.3     1  UNL1       -0.4371
      4 O          19.2565   71.3366   -1.5366 O.3     1  UNL1       -0.3112
      5 C          19.1911   70.3462   -2.5639 C.3     1  UNL1        0.1811
      6 C          17.3197   70.4885   -5.6306 C.3     1  UNL1        0.2383
      7 C          17.1317   69.0345   -5.1272 C.3     1  UNL1        0.1895
      8 O          15.8615   68.5161   -5.5285 O.3     1  UNL1       -0.3779
      9 C          17.1949   69.2129   -3.5879 C.3     1  UNL1        0.1713
     10 C          17.9249   70.5553   -3.3964 C.3     1  UNL1        0.1764
     11 O          18.2744   71.0456   -4.7024 O.3     1  UNL1       -0.3308
     12 O          15.8777   69.2690   -3.0369 O.3     1  UNL1       -0.3794
     13 H          15.8079   67.6130   -5.1858 H       1  UNL1        0.2106
     14 H          15.4528   68.4247   -3.2403 H       1  UNL1        0.2105
     15 N          17.8570   70.4998   -6.9922 N.ar    1  UNL1       -0.2551
     16 C          17.0171   70.4471   -8.0411 C.ar    1  UNL1        0.3323
     17 N          17.4852   70.4597   -9.3031 N.ar    1  UNL1       -0.2743
     18 C          18.8106   70.5156   -9.5362 C.ar    1  UNL1        0.2626
     19 C          19.7075   70.5657   -8.4411 C.ar    1  UNL1        0.0795
     20 C          19.2111   70.5561   -7.1857 C.ar    1  UNL1        0.0869
     21 O          15.8189   70.3969   -7.8464 O.2     1  UNL1       -0.2464
     22 O          19.2354   70.5222  -10.6782 O.2     1  UNL1       -0.2670
     23 H          16.8643   70.4254  -10.0482 H       1  UNL1        0.1734
     24 O          21.7353   70.7174   -2.1548 O.3     1  UNL1       -0.2703
     25 P          23.1317   71.5170   -2.1294 P.3     1  UNL1        0.2208
     26 O          23.6015   71.6446   -0.7322 O.2     1  UNL1       -0.5170
     27 O          24.2273   70.7106   -2.9918 O.3     1  UNL1       -0.4371
     28 O          22.9243   72.9818   -2.7628 O.3     1  UNL1       -0.2858
     29 C          24.0743   73.2538   -3.5648 C.3     1  UNL1        0.2704
     30 C          24.4679   74.7236   -3.4086 C.3     1  UNL1        0.1967
     31 C          23.2895   75.6035   -3.8368 C.3     1  UNL1        0.1715
     32 C          22.8570   75.1905   -5.2482 C.3     1  UNL1        0.1694
     33 C          22.5834   73.6845   -5.2642 C.3     1  UNL1        0.1761
     34 O          24.7942   74.9892   -2.0433 O.3     1  UNL1       -0.3775
     35 O          23.6899   76.9754   -3.8370 O.3     1  UNL1       -0.3794
     36 O          23.8964   75.5021   -6.1769 O.3     1  UNL1       -0.3794
     37 O          23.7757   72.9752   -4.9307 O.3     1  UNL1       -0.3258
     38 H          25.5340   74.4098   -1.8154 H       1  UNL1        0.2106
     39 H          23.9639   77.1871   -2.9357 H       1  UNL1        0.2105
     40 H          24.0381   76.4565   -6.1285 H       1  UNL1        0.2105
     41 C          22.1176   73.2673   -6.6610 C.3     1  UNL1        0.1693
     42 O          23.0168   72.2915   -7.1904 O.3     1  UNL1       -0.3794
     43 H          22.6881   72.0553   -8.0687 H       1  UNL1        0.2105
@<TRIPOS>BOND
     1    15    16   ar
     2    15    20   ar
     3    15     6    1
     4    16    17   ar
     5    16    21    2
     6    17    18   ar
     7    17    23    1
     8    18    19   ar
     9    18    22    2
    10    19    20   ar
    11     6     7    1
    12     6    11    1
    13     7     8    1
    14     7     9    1
    15     8    13    1
    16     9    10    1
    17     9    12    1
    18    10    11    1
    19    10     5    1
    20    12    14    1
    21     5     4    1
    22     4     1    1
    23     1     2    2
    24     1     3    1
    25     1    24    1
    26    24    25    1
    27    25    26    2
    28    25    27    1
    29    25    28    1
    30    28    29    1
    31    29    30    1
    32    29    37    1
    33    30    31    1
    34    30    34    1
    35    31    32    1
    36    31    35    1
    37    32    33    1
    38    32    36    1
    39    33    41    1
    40    33    37    1
    41    41    42    1
    42    34    38    1
    43    35    39    1
    44    36    40    1
    45    42    43    1
@<TRIPOS>MOLECULE
GDU
 43 45 0 0 0
SMALL
GASTEIGER

@<TRIPOS>ATOM
      1 P          23.1523   72.6328   -3.1890 P.3     1  UNL1        0.2189
      2 O          24.3643   72.3002   -3.9700 O.2     1  UNL1       -0.5170
      3 O          23.4920   73.8139   -2.1484 O.3     1  UNL1       -0.4371
      4 O          21.9863   73.1152   -4.1863 O.3     1  UNL1       -0.3112
      5 C          22.4934   72.9750   -5.5143 C.3     1  UNL1        0.1811
      6 C          19.6216   70.8826   -6.0633 C.3     1  UNL1        0.2383
      7 C          19.3553   72.1429   -6.9256 C.3     1  UNL1        0.1895
      8 O          18.5853   71.8147   -8.0843 O.3     1  UNL1       -0.3779
      9 C          20.7912   72.5760   -7.3201 C.3     1  UNL1        0.1713
     10 C          21.6877   71.9097   -6.2600 C.3     1  UNL1        0.1764
     11 O          20.8255   71.2170   -5.3407 O.3     1  UNL1       -0.3308
     12 O          21.1146   72.1010   -8.6285 O.3     1  UNL1       -0.3794
     13 H          18.4550   72.6381   -8.5750 H       1  UNL1        0.2106
     14 H          20.4832   72.5070   -9.2378 H       1  UNL1        0.2105
     15 N          18.5132   70.6450   -5.1371 N.ar    1  UNL1       -0.2551
     16 C          17.4296   69.9665   -5.5538 C.ar    1  UNL1        0.3323
     17 N          16.3984   69.7315   -4.7212 N.ar    1  UNL1       -0.2743
     18 C          16.4318   70.1836   -3.4529 C.ar    1  UNL1        0.2626
     19 C          17.5643   70.9048   -3.0017 C.ar    1  UNL1        0.0795
     20 C          18.5865   71.1228   -3.8562 C.ar    1  UNL1        0.0869
     21 O          17.3852   69.5521   -6.6950 O.2     1  UNL1       -0.2464
     22 O          15.4968   69.9755   -2.6999 O.2     1  UNL1       -0.2670
     23 H          15.6261   69.2364   -5.0376 H       1  UNL1        0.1734
     24 O          22.6627   71.3303   -2.3790 O.3     1  UNL1       -0.2703
     25 P          21.4821   71.8087   -1.3955 P.3     1  UNL1        0.2208
     26 O          20.7053   72.8870   -2.0459 O.2     1  UNL1       -0.5170
     27 O          20.5103   70.5640   -1.0788 O.3     1  UNL1       -0.4371
     28 O          22.1158   72.3564   -0.0213 O.3     1  UNL1       -0.2858
     29 C          21.4924   71.6329    1.0405 C.3     1  UNL1        0.2704
     30 C          20.7724   72.6116    1.9695 C.3     1  UNL1        0.1967
     31 C          21.7898   73.6142    2.5227 C.3     1  UNL1        0.1715
     32 C          22.9453   72.8370    3.1632 C.3     1  UNL1        0.1694
     33 C          23.5022   71.8418    2.1422 C.3     1  UNL1        0.1761
     34 O          19.7603   73.3076    1.2398 O.3     1  UNL1       -0.3775
     35 O          21.1628   74.4425    3.5041 O.3     1  UNL1       -0.3794
     36 O          22.4696   72.1343    4.3121 O.3     1  UNL1       -0.3794
     37 O          22.4843   70.9139    1.7698 O.3     1  UNL1       -0.3258
     38 H          19.1478   72.6386    0.9049 H       1  UNL1        0.2106
     39 H          20.4377   74.9013    3.0613 H       1  UNL1        0.2105
     40 H          22.1242   72.7982    4.9231 H       1  UNL1        0.2105
     41 C          24.6793   71.0842    2.7606 C.3     1  UNL1        0.1693
     42 O          24.9614   69.9230    1.9776 O.3     1  UNL1       -0.3794
     43 H          25.7077   69.4754    2.3996 H       1  UNL1        0.2105
@<TRIPOS>BOND
     1    15    16   ar
     2    15    20   ar
     3    15     6    1
     4    16    17   ar
     5    16    21    2
     6    17    18   ar
     7    17    23    1
     8    18    19   ar
     9    18    22    2
    10    19    20   ar
    11     6     7    1
    12     6    11    1
    13     7     8    1
    14     7     9    1
    15     8    13    1
    16     9    10    1
    17     9    12    1
    18    10    11    1
    19    10     5    1
    20    12    14    1
    21     5     4    1
    22     4     1    1
    23     1     2    2
    24     1     3    1
    25     1    24    1
    26    24    25    1
    27    25    26    2
    28    25    27    1
    29    25    28    1
    30    28    29    1
    31    29    30    1
    32    29    37    1
    33    30    31    1
    34    30    34    1
    35    31    32    1
    36    31    35    1
    37    32    33    1
    38    32    36    1
    39    33    41    1
    40    33    37    1
    41    41    42    1
    42    34    38    1
    43    35    39    1
    44    36    40    1
    45    42    43    1
@<TRIPOS>MOLECULE
GDU
 43 45 0 0 0
SMALL
GASTEIGER

@<TRIPOS>ATOM
      1 P          20.1199   71.4383   -2.4815 P.3     1  UNL1        0.2189
      2 O          19.7167   70.3209   -1.5993 O.2     1  UNL1       -0.5170
      3 O          21.0885   70.8832   -3.6420 O.3     1  UNL1       -0.4371
      4 O          18.8115   72.0982   -3.1445 O.3     1  UNL1       -0.3112
      5 C          17.6803   71.5215   -2.4900 C.3     1  UNL1        0.1811
      6 C          16.5909   70.5481   -5.7752 C.3     1  UNL1        0.2383
      7 C          16.8215   69.2090   -5.0291 C.3     1  UNL1        0.1895
      8 O          15.9338   68.1975   -5.5108 O.3     1  UNL1       -0.3779
      9 C          16.4826   69.5906   -3.5646 C.3     1  UNL1        0.1713
     10 C          16.6341   71.1228   -3.5324 C.3     1  UNL1        0.1764
     11 O          17.0634   71.5407   -4.8398 O.3     1  UNL1       -0.3308
     12 O          15.1437   69.2068   -3.2454 O.3     1  UNL1       -0.3794
     13 H          16.1280   67.3938   -5.0085 H       1  UNL1        0.2106
     14 H          15.0975   68.2458   -3.3406 H       1  UNL1        0.2105
     15 N          17.3716   70.5926   -7.0127 N.ar    1  UNL1       -0.2551
     16 C          16.7395   70.6478   -8.1983 C.ar    1  UNL1        0.3323
     17 N          17.4337   70.6931   -9.3506 N.ar    1  UNL1       -0.2743
     18 C          18.7804   70.6739   -9.3344 C.ar    1  UNL1        0.2626
     19 C          19.4597   70.6102   -8.0931 C.ar    1  UNL1        0.0795
     20 C          18.7390   70.5699   -6.9522 C.ar    1  UNL1        0.0869
     21 O          15.5251   70.6662   -8.2289 O.2     1  UNL1       -0.2464
     22 O          19.4096   70.7100  -10.3771 O.2     1  UNL1       -0.2670
     23 H          16.9612   70.7369  -10.1971 H       1  UNL1        0.1734
     24 O          20.9025   72.5481   -1.6165 O.3     1  UNL1       -0.2703
     25 P          22.4012   72.0019   -1.4030 P.3     1  UNL1        0.2208
     26 O          22.5420   71.4727   -0.0286 O.2     1  UNL1       -0.5170
     27 O          22.6999   70.8268   -2.4632 O.3     1  UNL1       -0.4371
     28 O          23.4484   73.2034   -1.6264 O.3     1  UNL1       -0.2858
     29 C          22.9745   73.9658   -2.7373 C.3     1  UNL1        0.2704
     30 C          24.0758   74.0646   -3.7939 C.3     1  UNL1        0.1967
     31 C          25.3078   74.7270   -3.1696 C.3     1  UNL1        0.1715
     32 C          24.8830   76.0601   -2.5435 C.3     1  UNL1        0.1694
     33 C          23.7208   75.8094   -1.5795 C.3     1  UNL1        0.1761
     34 O          24.4161   72.7556   -4.2545 O.3     1  UNL1       -0.3775
     35 O          26.2915   74.9600   -4.1798 O.3     1  UNL1       -0.3794
     36 O          24.4710   76.9613   -3.5722 O.3     1  UNL1       -0.3794
     37 O          22.6097   75.2710   -2.2947 O.3     1  UNL1       -0.3258
     38 H          23.6115   72.3748   -4.6320 H       1  UNL1        0.2106
     39 H          26.5191   74.0990   -4.5527 H       1  UNL1        0.2105
     40 H          25.2301   77.0848   -4.1567 H       1  UNL1        0.2105
     41 C          23.3113   77.1296   -0.9227 C.3     1  UNL1        0.1693
     42 O          24.4474   77.9918   -0.8396 O.3     1  UNL1       -0.3794
     43 H          24.1472   78.8107   -0.4217 H       1  UNL1        0.2105
@<TRIPOS>BOND
     1    15    16   ar
     2    15    20   ar
     3    15     6    1
     4    16    17   ar
     5    16    21    2
     6    17    18   ar
     7    17    23    1
     8    18    19   ar
     9    18    22    2
    10    19    20   ar
    11     6     7    1
    12     6    11    1
    13     7     8    1
    14     7     9    1
    15     8    13    1
    16     9    10    1
    17     9    12    1
    18    10    11    1
    19    10     5    1
    20    12    14    1
    21     5     4    1
    22     4     1    1
    23     1     2    2
    24     1     3    1
    25     1    24    1
    26    24    25    1
    27    25    26    2
    28    25    27    1
    29    25    28    1
    30    28    29    1
    31    29    30    1
    32    29    37    1
    33    30    31    1
    34    30    34    1
    35    31    32    1
    36    31    35    1
    37    32    33    1
    38    32    36    1
    39    33    41    1
    40    33    37    1
    41    41    42    1
    42    34    38    1
    43    35    39    1
    44    36    40    1
    45    42    43    1
@<TRIPOS>MOLECULE
GDU
 43 45 0 0 0
SMALL
GASTEIGER

@<TRIPOS>ATOM
      1 P          15.5452   71.5647   -2.9973 P.3     1  UNL1        0.2189
      2 O          14.2694   72.3133   -2.9599 O.2     1  UNL1       -0.5170
      3 O          16.6644   72.3699   -2.1654 O.3     1  UNL1       -0.4371
      4 O          15.3339   70.1103   -2.3438 O.3     1  UNL1       -0.3112
      5 C          14.6177   70.3052   -1.1233 C.3     1  UNL1        0.1811
      6 C          12.2550   68.0141    0.3244 C.3     1  UNL1        0.2383
      7 C          11.6807   69.4183    0.6429 C.3     1  UNL1        0.1895
      8 O          10.2528   69.3843    0.7000 O.3     1  UNL1       -0.3779
      9 C          12.1660   70.2510   -0.5721 C.3     1  UNL1        0.1713
     10 C          13.3535   69.4439   -1.1287 C.3     1  UNL1        0.1764
     11 O          13.5367   68.3021   -0.2737 O.3     1  UNL1       -0.3308
     12 O          11.1277   70.3634   -1.5474 O.3     1  UNL1       -0.3794
     13 H           9.9603   70.2842    0.9011 H       1  UNL1        0.2106
     14 H          10.3922   70.8243   -1.1217 H       1  UNL1        0.2105
     15 N          12.4220   67.2324    1.5507 N.ar    1  UNL1       -0.2551
     16 C          13.6151   67.2113    2.1708 C.ar    1  UNL1        0.3323
     17 N          13.7943   66.5035    3.3016 N.ar    1  UNL1       -0.2743
     18 C          12.7779   65.7931    3.8274 C.ar    1  UNL1        0.2626
     19 C          11.5171   65.8013    3.1819 C.ar    1  UNL1        0.0795
     20 C          11.3636   66.5231    2.0514 C.ar    1  UNL1        0.0869
     21 O          14.5411   67.8476    1.7086 O.2     1  UNL1       -0.2464
     22 O          12.9404   65.1482    4.8483 O.2     1  UNL1       -0.2670
     23 H          14.6610   66.5031    3.7382 H       1  UNL1        0.1734
     24 O          16.0270   71.4031   -4.5251 O.3     1  UNL1       -0.2703
     25 P          16.8738   70.0369   -4.6054 P.3     1  UNL1        0.2208
     26 O          18.0244   70.1148   -3.6784 O.2     1  UNL1       -0.5170
     27 O          15.9331   68.7975   -4.1893 O.3     1  UNL1       -0.4371
     28 O          17.4078   69.8228   -6.1084 O.3     1  UNL1       -0.2858
     29 C          17.5435   71.1204   -6.6894 C.3     1  UNL1        0.2704
     30 C          17.2870   71.0336   -8.1947 C.3     1  UNL1        0.1967
     31 C          18.2890   70.0555   -8.8157 C.3     1  UNL1        0.1715
     32 C          19.7053   70.4874   -8.4192 C.3     1  UNL1        0.1694
     33 C          19.7790   70.6137   -6.8955 C.3     1  UNL1        0.1761
     34 O          15.9559   70.5696   -8.4274 O.3     1  UNL1       -0.3775
     35 O          18.1595   70.0744  -10.2388 O.3     1  UNL1       -0.3794
     36 O          20.0078   71.7459   -9.0230 O.3     1  UNL1       -0.3794
     37 O          18.8606   71.6109   -6.4502 O.3     1  UNL1       -0.3258
     38 H          15.3609   71.2101   -8.0143 H       1  UNL1        0.2106
     39 H          17.2534   69.8088  -10.4409 H       1  UNL1        0.2105
     40 H          19.9438   71.6204   -9.9787 H       1  UNL1        0.2105
     41 C          21.1990   71.0114   -6.4864 C.3     1  UNL1        0.1693
     42 O          21.1684   72.2846   -5.8392 O.3     1  UNL1       -0.3794
     43 H          22.0802   72.4976   -5.5973 H       1  UNL1        0.2105
@<TRIPOS>BOND
     1    15    16   ar
     2    15    20   ar
     3    15     6    1
     4    16    17   ar
     5    16    21    2
     6    17    18   ar
     7    17    23    1
     8    18    19   ar
     9    18    22    2
    10    19    20   ar
    11     6     7    1
    12     6    11    1
    13     7     8    1
    14     7     9    1
    15     8    13    1
    16     9    10    1
    17     9    12    1
    18    10    11    1
    19    10     5    1
    20    12    14    1
    21     5     4    1
    22     4     1    1
    23     1     2    2
    24     1     3    1
    25     1    24    1
    26    24    25    1
    27    25    26    2
    28    25    27    1
    29    25    28    1
    30    28    29    1
    31    29    30    1
    32    29    37    1
    33    30    31    1
    34    30    34    1
    35    31    32    1
    36    31    35    1
    37    32    33    1
    38    32    36    1
    39    33    41    1
    40    33    37    1
    41    41    42    1
    42    34    38    1
    43    35    39    1
    44    36    40    1
    45    42    43    1
@<TRIPOS>MOLECULE
GDU
 43 45 0 0 0
SMALL
GASTEIGER

@<TRIPOS>ATOM
      1 P          21.8910   71.8483   -2.7979 P.3     1  UNL1        0.2189
      2 O          22.9615   70.8277   -2.7535 O.2     1  UNL1       -0.5170
      3 O          22.4360   73.1653   -3.5471 O.3     1  UNL1       -0.4371
      4 O          20.6234   71.2627   -3.5961 O.3     1  UNL1       -0.3112
      5 C          19.5465   71.1829   -2.6611 C.3     1  UNL1        0.1811
      6 C          17.5143   70.6466   -5.5782 C.3     1  UNL1        0.2383
      7 C          17.6029   69.2534   -4.9043 C.3     1  UNL1        0.1895
      8 O          16.4190   68.4914   -5.1510 O.3     1  UNL1       -0.3779
      9 C          17.7185   69.6255   -3.4031 C.3     1  UNL1        0.1713
     10 C          18.2198   71.0815   -3.4159 C.3     1  UNL1        0.1764
     11 O          18.4098   71.4595   -4.7904 O.3     1  UNL1       -0.3308
     12 O          16.4426   69.5341   -2.7662 O.3     1  UNL1       -0.3794
     13 H          16.5379   67.6400   -4.7072 H       1  UNL1        0.2106
     14 H          16.1565   68.6138   -2.8428 H       1  UNL1        0.2105
     15 N          17.9673   70.5791   -6.9686 N.ar    1  UNL1       -0.2551
     16 C          17.0754   70.3590   -7.9506 C.ar    1  UNL1        0.3323
     17 N          17.4652   70.2960   -9.2374 N.ar    1  UNL1       -0.2743
     18 C          18.7639   70.4436   -9.5625 C.ar    1  UNL1        0.2626
     19 C          19.7154   70.6703   -8.5381 C.ar    1  UNL1        0.0795
     20 C          19.2968   70.7332   -7.2562 C.ar    1  UNL1        0.0869
     21 O          15.9003   70.2243   -7.6728 O.2     1  UNL1       -0.2464
     22 O          19.1183   70.3819  -10.7266 O.2     1  UNL1       -0.2670
     23 H          16.8073   70.1406   -9.9337 H       1  UNL1        0.1734
     24 O          21.4519   72.2297   -1.2965 O.3     1  UNL1       -0.2703
     25 P          22.2293   73.5857   -0.9131 P.3     1  UNL1        0.2208
     26 O          23.6653   73.4395   -1.2383 O.2     1  UNL1       -0.5170
     27 O          21.6119   74.8137   -1.7527 O.3     1  UNL1       -0.4371
     28 O          22.0613   73.8752    0.6610 O.3     1  UNL1       -0.2858
     29 C          20.9349   73.1174    1.1044 C.3     1  UNL1        0.2704
     30 C          19.8050   74.0691    1.5008 C.3     1  UNL1        0.1967
     31 C          20.3028   74.9986    2.6119 C.3     1  UNL1        0.1715
     32 C          20.8645   74.1421    3.7523 C.3     1  UNL1        0.1694
     33 C          21.9162   73.1855    3.1850 C.3     1  UNL1        0.1761
     34 O          19.4121   74.8441    0.3667 O.3     1  UNL1       -0.3775
     35 O          19.2179   75.7937    3.0948 O.3     1  UNL1       -0.3794
     36 O          19.8066   73.3944    4.3540 O.3     1  UNL1       -0.3794
     37 O          21.3118   72.3203    2.2247 O.3     1  UNL1       -0.3258
     38 H          19.1136   74.2194   -0.3083 H       1  UNL1        0.2106
     39 H          18.8895   76.3046    2.3441 H       1  UNL1        0.2105
     40 H          19.1673   74.0355    4.6910 H       1  UNL1        0.2105
     41 C          22.5082   72.3490    4.3215 C.3     1  UNL1        0.1693
     42 O          22.1512   72.9312    5.5763 O.3     1  UNL1       -0.3794
     43 H          22.5420   72.3751    6.2643 H       1  UNL1        0.2105
@<TRIPOS>BOND
     1    15    16   ar
     2    15    20   ar
     3    15     6    1
     4    16    17   ar
     5    16    21    2
     6    17    18   ar
     7    17    23    1
     8    18    19   ar
     9    18    22    2
    10    19    20   ar
    11     6     7    1
    12     6    11    1
    13     7     8    1
    14     7     9    1
    15     8    13    1
    16     9    10    1
    17     9    12    1
    18    10    11    1
    19    10     5    1
    20    12    14    1
    21     5     4    1
    22     4     1    1
    23     1     2    2
    24     1     3    1
    25     1    24    1
    26    24    25    1
    27    25    26    2
    28    25    27    1
    29    25    28    1
    30    28    29    1
    31    29    30    1
    32    29    37    1
    33    30    31    1
    34    30    34    1
    35    31    32    1
    36    31    35    1
    37    32    33    1
    38    32    36    1
    39    33    41    1
    40    33    37    1
    41    41    42    1
    42    34    38    1
    43    35    39    1
    44    36    40    1
    45    42    43    1
@<TRIPOS>MOLECULE
GDU
 43 45 0 0 0
SMALL
GASTEIGER

@<TRIPOS>ATOM
      1 P          20.6954   71.4027   -1.5028 P.3     1  UNL1        0.2189
      2 O          20.7611   70.7965   -0.1546 O.2     1  UNL1       -0.5170
      3 O          21.4964   70.4754   -2.5476 O.3     1  UNL1       -0.4371
      4 O          19.1590   71.5252   -1.9623 O.3     1  UNL1       -0.3112
      5 C          18.8083   70.2808   -2.5698 C.3     1  UNL1        0.1811
      6 C          17.1045   70.4141   -5.7331 C.3     1  UNL1        0.2383
      7 C          16.9105   68.9547   -5.2478 C.3     1  UNL1        0.1895
      8 O          15.6716   68.4207   -5.7203 O.3     1  UNL1       -0.3779
      9 C          16.8873   69.1252   -3.7065 C.3     1  UNL1        0.1713
     10 C          17.5863   70.4767   -3.4690 C.3     1  UNL1        0.1764
     11 O          17.9992   70.9793   -4.7516 O.3     1  UNL1       -0.3308
     12 O          15.5414   69.1595   -3.2278 O.3     1  UNL1       -0.3794
     13 H          15.6125   67.5150   -5.3854 H       1  UNL1        0.2106
     14 H          15.1405   68.3104   -3.4582 H       1  UNL1        0.2105
     15 N          17.7149   70.4407   -7.0634 N.ar    1  UNL1       -0.2551
     16 C          16.9316   70.4661   -8.1561 C.ar    1  UNL1        0.3323
     17 N          17.4676   70.4945   -9.3906 N.ar    1  UNL1       -0.2743
     18 C          18.8048   70.4879   -9.5516 C.ar    1  UNL1        0.2626
     19 C          19.6423   70.4555   -8.4098 C.ar    1  UNL1        0.0795
     20 C          19.0786   70.4318   -7.1833 C.ar    1  UNL1        0.0869
     21 O          15.7236   70.4729   -8.0266 O.2     1  UNL1       -0.2464
     22 O          19.2908   70.5088  -10.6687 O.2     1  UNL1       -0.2670
     23 H          16.8872   70.5170  -10.1680 H       1  UNL1        0.1734
     24 O          21.3640   72.8670   -1.4649 O.3     1  UNL1       -0.2703
     25 P          20.9867   73.5155   -0.0412 P.3     1  UNL1        0.2208
     26 O          21.1631   74.9831   -0.1056 O.2     1  UNL1       -0.5170
     27 O          19.4530   73.1750    0.3138 O.3     1  UNL1       -0.4371
     28 O          21.9475   72.9080    1.0980 O.3     1  UNL1       -0.2858
     29 C          23.2898   73.2030    0.7094 C.3     1  UNL1        0.2704
     30 C          24.1291   71.9257    0.7679 C.3     1  UNL1        0.1967
     31 C          24.0891   71.3676    2.1938 C.3     1  UNL1        0.1715
     32 C          24.5162   72.4738    3.1652 C.3     1  UNL1        0.1694
     33 C          23.6454   73.7097    2.9260 C.3     1  UNL1        0.1761
     34 O          23.5958   70.9605   -0.1406 O.3     1  UNL1       -0.3775
     35 O          24.9848   70.2591    2.3009 O.3     1  UNL1       -0.3794
     36 O          25.8889   72.8003    2.9437 O.3     1  UNL1       -0.3794
     37 O          23.8343   74.1809    1.5925 O.3     1  UNL1       -0.3258
     38 H          23.6339   71.3562   -1.0220 H       1  UNL1        0.2106
     39 H          24.6860   69.5956    1.6662 H       1  UNL1        0.2105
     40 H          26.3972   71.9937    3.0996 H       1  UNL1        0.2105
     41 C          24.0409   74.8091    3.9144 C.3     1  UNL1        0.1693
     42 O          24.3154   74.2260    5.1894 O.3     1  UNL1       -0.3794
     43 H          24.5608   74.9502    5.7814 H       1  UNL1        0.2105
@<TRIPOS>BOND
     1    15    16   ar
     2    15    20   ar
     3    15     6    1
     4    16    17   ar
     5    16    21    2
     6    17    18   ar
     7    17    23    1
     8    18    19   ar
     9    18    22    2
    10    19    20   ar
    11     6     7    1
    12     6    11    1
    13     7     8    1
    14     7     9    1
    15     8    13    1
    16     9    10    1
    17     9    12    1
    18    10    11    1
    19    10     5    1
    20    12    14    1
    21     5     4    1
    22     4     1    1
    23     1     2    2
    24     1     3    1
    25     1    24    1
    26    24    25    1
    27    25    26    2
    28    25    27    1
    29    25    28    1
    30    28    29    1
    31    29    30    1
    32    29    37    1
    33    30    31    1
    34    30    34    1
    35    31    32    1
    36    31    35    1
    37    32    33    1
    38    32    36    1
    39    33    41    1
    40    33    37    1
    41    41    42    1
    42    34    38    1
    43    35    39    1
    44    36    40    1
    45    42    43    1
@<TRIPOS>MOLECULE
GDU
 43 45 0 0 0
SMALL
GASTEIGER

@<TRIPOS>ATOM
      1 P          21.8170   71.7220   -0.4207 P.3     1  UNL1        0.2189
      2 O          23.0893   71.1796   -0.9465 O.2     1  UNL1       -0.5170
      3 O          20.9590   70.5312    0.2417 O.3     1  UNL1       -0.4371
      4 O          22.1292   72.8413    0.6914 O.3     1  UNL1       -0.3112
      5 C          23.0788   72.2733    1.5949 C.3     1  UNL1        0.1811
      6 C          22.5920   73.1087    5.0579 C.3     1  UNL1        0.2383
      7 C          21.5160   73.9315    4.3042 C.3     1  UNL1        0.1895
      8 O          20.3548   74.1177    5.1166 O.3     1  UNL1       -0.3779
      9 C          21.2011   73.0195    3.0899 C.3     1  UNL1        0.1713
     10 C          22.4383   72.1098    2.9744 C.3     1  UNL1        0.1764
     11 O          23.3671   72.5141    3.9952 O.3     1  UNL1       -0.3308
     12 O          20.0249   72.2468    3.3373 O.3     1  UNL1       -0.3794
     13 H          19.7274   74.6346    4.5920 H       1  UNL1        0.2106
     14 H          19.2986   72.8733    3.4590 H       1  UNL1        0.2105
     15 N          23.4301   73.9824    5.8808 N.ar    1  UNL1       -0.2551
     16 C          24.5360   74.5360    5.3529 C.ar    1  UNL1        0.3323
     17 N          25.3218   75.3458    6.0868 N.ar    1  UNL1       -0.2743
     18 C          25.0159   75.6079    7.3721 C.ar    1  UNL1        0.2626
     19 C          23.8571   75.0272    7.9432 C.ar    1  UNL1        0.0795
     20 C          23.0843   74.2221    7.1835 C.ar    1  UNL1        0.0869
     21 O          24.8245   74.3092    4.1947 O.2     1  UNL1       -0.2464
     22 O          25.7291   76.3370    8.0387 O.2     1  UNL1       -0.2670
     23 H          26.1139   75.7402    5.6884 H       1  UNL1        0.1734
     24 O          20.9768   72.3808   -1.6258 O.3     1  UNL1       -0.2703
     25 P          20.5770   71.1840   -2.6247 P.3     1  UNL1        0.2208
     26 O          21.7787   70.3786   -2.9351 O.2     1  UNL1       -0.5170
     27 O          19.4701   70.2473   -1.9236 O.3     1  UNL1       -0.4371
     28 O          19.9749   71.7976   -3.9853 O.3     1  UNL1       -0.2858
     29 C          20.3349   70.9031   -5.0388 C.3     1  UNL1        0.2704
     30 C          21.1811   71.6481   -6.0724 C.3     1  UNL1        0.1967
     31 C          20.3743   72.8302   -6.6186 C.3     1  UNL1        0.1715
     32 C          19.0273   72.3089   -7.1318 C.3     1  UNL1        0.1694
     33 C          18.3432   71.5148   -6.0163 C.3     1  UNL1        0.1761
     34 O          22.3775   72.1274   -5.4559 O.3     1  UNL1       -0.3775
     35 O          21.0922   73.4478   -7.6889 O.3     1  UNL1       -0.3794
     36 O          19.2417   71.4645   -8.2636 O.3     1  UNL1       -0.3794
     37 O          19.1530   70.3970   -5.6549 O.3     1  UNL1       -0.3258
     38 H          22.8486   71.3522   -5.1212 H       1  UNL1        0.2106
     39 H          21.9341   73.7487   -7.3243 H       1  UNL1        0.2105
     40 H          19.6783   72.0033   -8.9362 H       1  UNL1        0.2105
     41 C          16.9814   71.0184   -6.5073 C.3     1  UNL1        0.1693
     42 O          17.0401   70.7844   -7.9154 O.3     1  UNL1       -0.3794
     43 H          16.1648   70.4730   -8.1841 H       1  UNL1        0.2105
@<TRIPOS>BOND
     1    15    16   ar
     2    15    20   ar
     3    15     6    1
     4    16    17   ar
     5    16    21    2
     6    17    18   ar
     7    17    23    1
     8    18    19   ar
     9    18    22    2
    10    19    20   ar
    11     6     7    1
    12     6    11    1
    13     7     8    1
    14     7     9    1
    15     8    13    1
    16     9    10    1
    17     9    12    1
    18    10    11    1
    19    10     5    1
    20    12    14    1
    21     5     4    1
    22     4     1    1
    23     1     2    2
    24     1     3    1
    25     1    24    1
    26    24    25    1
    27    25    26    2
    28    25    27    1
    29    25    28    1
    30    28    29    1
    31    29    30    1
    32    29    37    1
    33    30    31    1
    34    30    34    1
    35    31    32    1
    36    31    35    1
    37    32    33    1
    38    32    36    1
    39    33    41    1
    40    33    37    1
    41    41    42    1
    42    34    38    1
    43    35    39    1
    44    36    40    1
    45    42    43    1
@<TRIPOS>MOLECULE
GDU
 43 45 0 0 0
SMALL
GASTEIGER

@<TRIPOS>ATOM
      1 P          23.0868   72.8398   -3.3278 P.3     1  UNL1        0.2189
      2 O          23.0352   74.2723   -2.9606 O.2     1  UNL1       -0.5170
      3 O          24.2980   72.5937   -4.3599 O.3     1  UNL1       -0.4371
      4 O          23.3204   71.9545   -2.0054 O.3     1  UNL1       -0.3112
      5 C          22.0599   71.3728   -1.6688 C.3     1  UNL1        0.1811
      6 C          23.1799   71.8331    1.7166 C.3     1  UNL1        0.2383
      7 C          22.5319   73.1882    1.3335 C.3     1  UNL1        0.1895
      8 O          21.9608   73.8226    2.4801 O.3     1  UNL1       -0.3779
      9 C          21.4277   72.7499    0.3365 C.3     1  UNL1        0.1713
     10 C          21.8903   71.3635   -0.1486 C.3     1  UNL1        0.1764
     11 O          23.1525   71.0856    0.4821 O.3     1  UNL1       -0.3308
     12 O          20.1643   72.6600    0.9981 O.3     1  UNL1       -0.3794
     13 H          21.5765   74.6563    2.1750 H       1  UNL1        0.2106
     14 H          19.9581   73.5445    1.3296 H       1  UNL1        0.2105
     15 N          24.5576   72.0280    2.1712 N.ar    1  UNL1       -0.2551
     16 C          25.3504   70.9608    2.3732 C.ar    1  UNL1        0.3323
     17 N          26.6221   71.1126    2.7876 N.ar    1  UNL1       -0.2743
     18 C          27.1202   72.3428    3.0172 C.ar    1  UNL1        0.2626
     19 C          26.2949   73.4758    2.8141 C.ar    1  UNL1        0.0795
     20 C          25.0246   73.2954    2.3941 C.ar    1  UNL1        0.0869
     21 O          24.9153   69.8448    2.1699 O.2     1  UNL1       -0.2464
     22 O          28.2696   72.4809    3.3969 O.2     1  UNL1       -0.2670
     23 H          27.1814   70.3314    2.9242 H       1  UNL1        0.1734
     24 O          21.6976   72.4142   -4.0215 O.3     1  UNL1       -0.2703
     25 P          21.7281   72.9952   -5.5220 P.3     1  UNL1        0.2208
     26 O          21.8792   74.4664   -5.4781 O.2     1  UNL1       -0.5170
     27 O          22.9700   72.3523   -6.3210 O.3     1  UNL1       -0.4371
     28 O          20.3555   72.6179   -6.2728 O.3     1  UNL1       -0.2858
     29 C          20.4301   71.2300   -6.6013 C.3     1  UNL1        0.2704
     30 C          20.1481   71.0440   -8.0930 C.3     1  UNL1        0.1967
     31 C          18.7569   71.6009   -8.4106 C.3     1  UNL1        0.1715
     32 C          17.7403   70.9469   -7.4680 C.3     1  UNL1        0.1694
     33 C          18.2044   71.1422   -6.0225 C.3     1  UNL1        0.1761
     34 O          21.1315   71.7443   -8.8570 O.3     1  UNL1       -0.3775
     35 O          18.4186   71.3030   -9.7668 O.3     1  UNL1       -0.3794
     36 O          17.6462   69.5520   -7.7604 O.3     1  UNL1       -0.3794
     37 O          19.4692   70.5093   -5.8334 O.3     1  UNL1       -0.3258
     38 H          21.9895   71.3667   -8.6204 H       1  UNL1        0.2106
     39 H          19.0888   71.7225  -10.3210 H       1  UNL1        0.2105
     40 H          17.3574   69.4775   -8.6793 H       1  UNL1        0.2105
     41 C          17.1784   70.5224   -5.0711 C.3     1  UNL1        0.1693
     42 O          15.8610   70.8721   -5.4991 O.3     1  UNL1       -0.3794
     43 H          15.2461   70.4624   -4.8752 H       1  UNL1        0.2105
@<TRIPOS>BOND
     1    15    16   ar
     2    15    20   ar
     3    15     6    1
     4    16    17   ar
     5    16    21    2
     6    17    18   ar
     7    17    23    1
     8    18    19   ar
     9    18    22    2
    10    19    20   ar
    11     6     7    1
    12     6    11    1
    13     7     8    1
    14     7     9    1
    15     8    13    1
    16     9    10    1
    17     9    12    1
    18    10    11    1
    19    10     5    1
    20    12    14    1
    21     5     4    1
    22     4     1    1
    23     1     2    2
    24     1     3    1
    25     1    24    1
    26    24    25    1
    27    25    26    2
    28    25    27    1
    29    25    28    1
    30    28    29    1
    31    29    30    1
    32    29    37    1
    33    30    31    1
    34    30    34    1
    35    31    32    1
    36    31    35    1
    37    32    33    1
    38    32    36    1
    39    33    41    1
    40    33    37    1
    41    41    42    1
    42    34    38    1
    43    35    39    1
    44    36    40    1
    45    42    43    1
@<TRIPOS>MOLECULE
GDU
 43 45 0 0 0
SMALL
GASTEIGER

@<TRIPOS>ATOM
      1 P          22.5081   71.4283   -2.7181 P.3     1  UNL1        0.2189
      2 O          22.1045   72.8519   -2.7210 O.2     1  UNL1       -0.5170
      3 O          23.9610   71.2811   -3.3966 O.3     1  UNL1       -0.4371
      4 O          22.5659   70.8895   -1.2038 O.3     1  UNL1       -0.3112
      5 C          21.3113   71.2120   -0.6017 C.3     1  UNL1        0.1811
      6 C          23.1222   71.7518    2.4571 C.3     1  UNL1        0.2383
      7 C          22.4098   73.1011    2.1834 C.3     1  UNL1        0.1895
      8 O          22.0950   73.7690    3.4073 O.3     1  UNL1       -0.3779
      9 C          21.1192   72.6450    1.4543 C.3     1  UNL1        0.1713
     10 C          21.4668   71.2432    0.9198 C.3     1  UNL1        0.1764
     11 O          22.8335   70.9728    1.2767 O.3     1  UNL1       -0.3308
     12 O          20.0241   72.5812    2.3701 O.3     1  UNL1       -0.3794
     13 H          21.6561   74.5972    3.1681 H       1  UNL1        0.2106
     14 H          19.8940   73.4754    2.7138 H       1  UNL1        0.2105
     15 N          24.5652   71.9486    2.6049 N.ar    1  UNL1       -0.2551
     16 C          25.3894   70.8864    2.5779 C.ar    1  UNL1        0.3323
     17 N          26.7203   71.0403    2.7080 N.ar    1  UNL1       -0.2743
     18 C          27.2495   72.2671    2.8782 C.ar    1  UNL1        0.2626
     19 C          26.3931   73.3947    2.9144 C.ar    1  UNL1        0.0795
     20 C          25.0625   73.2124    2.7772 C.ar    1  UNL1        0.0869
     21 O          24.9266   69.7735    2.4247 O.2     1  UNL1       -0.2464
     22 O          28.4537   72.4069    3.0008 O.2     1  UNL1       -0.2670
     23 H          27.3006   70.2629    2.6819 H       1  UNL1        0.1734
     24 O          21.4366   70.5660   -3.5553 O.3     1  UNL1       -0.2703
     25 P          20.8190   71.5465   -4.6721 P.3     1  UNL1        0.2208
     26 O          20.0688   72.6368   -4.0105 O.2     1  UNL1       -0.5170
     27 O          22.0119   72.1745   -5.5534 O.3     1  UNL1       -0.4371
     28 O          19.8272   70.7150   -5.6286 O.3     1  UNL1       -0.2858
     29 C          18.9113   71.6540   -6.1936 C.3     1  UNL1        0.2704
     30 C          17.4817   71.2586   -5.8205 C.3     1  UNL1        0.1967
     31 C          17.2018   69.8471   -6.3456 C.3     1  UNL1        0.1715
     32 C          17.5186   69.8101   -7.8449 C.3     1  UNL1        0.1694
     33 C          18.9473   70.3140   -8.0642 C.3     1  UNL1        0.1761
     34 O          17.3344   71.2803   -4.3996 O.3     1  UNL1       -0.3775
     35 O          15.8265   69.5204   -6.1349 O.3     1  UNL1       -0.3794
     36 O          16.5987   70.6461   -8.5484 O.3     1  UNL1       -0.3794
     37 O          19.0568   71.6628   -7.6118 O.3     1  UNL1       -0.3258
     38 H          17.5265   72.1835   -4.1130 H       1  UNL1        0.2106
     39 H          15.6702   69.5677   -5.1832 H       1  UNL1        0.2105
     40 H          15.7148   70.2957   -8.3772 H       1  UNL1        0.2105
     41 C          19.2859   70.2488   -9.5552 C.3     1  UNL1        0.1693
     42 O          18.6066   71.3004  -10.2435 O.3     1  UNL1       -0.3794
     43 H          18.8467   71.2246  -11.1773 H       1  UNL1        0.2105
@<TRIPOS>BOND
     1    15    16   ar
     2    15    20   ar
     3    15     6    1
     4    16    17   ar
     5    16    21    2
     6    17    18   ar
     7    17    23    1
     8    18    19   ar
     9    18    22    2
    10    19    20   ar
    11     6     7    1
    12     6    11    1
    13     7     8    1
    14     7     9    1
    15     8    13    1
    16     9    10    1
    17     9    12    1
    18    10    11    1
    19    10     5    1
    20    12    14    1
    21     5     4    1
    22     4     1    1
    23     1     2    2
    24     1     3    1
    25     1    24    1
    26    24    25    1
    27    25    26    2
    28    25    27    1
    29    25    28    1
    30    28    29    1
    31    29    30    1
    32    29    37    1
    33    30    31    1
    34    30    34    1
    35    31    32    1
    36    31    35    1
    37    32    33    1
    38    32    36    1
    39    33    41    1
    40    33    37    1
    41    41    42    1
    42    34    38    1
    43    35    39    1
    44    36    40    1
    45    42    43    1
@<TRIPOS>MOLECULE
GDU
 43 45 0 0 0
SMALL
GASTEIGER

@<TRIPOS>ATOM
      1 P          22.7782   72.5054   -3.5910 P.3     1  UNL1        0.2189
      2 O          23.7761   72.5370   -4.6831 O.2     1  UNL1       -0.5170
      3 O          22.1869   71.0145   -3.4475 O.3     1  UNL1       -0.4371
      4 O          23.4791   72.9399   -2.2102 O.3     1  UNL1       -0.3112
      5 C          22.5089   72.7564   -1.1780 C.3     1  UNL1        0.1811
      6 C          24.4604   71.5609    1.5951 C.3     1  UNL1        0.2383
      7 C          23.1013   71.9652    2.2214 C.3     1  UNL1        0.1895
      8 O          22.8002   71.1501    3.3564 O.3     1  UNL1       -0.3779
      9 C          22.1121   71.6841    1.0604 C.3     1  UNL1        0.1713
     10 C          23.0003   71.6898   -0.1976 C.3     1  UNL1        0.1764
     11 O          24.3414   71.9939    0.2233 O.3     1  UNL1       -0.3308
     12 O          21.4871   70.4108    1.2339 O.3     1  UNL1       -0.3794
     13 H          21.9467   71.4517    3.6977 H       1  UNL1        0.2106
     14 H          20.9955   70.4511    2.0655 H       1  UNL1        0.2105
     15 N          25.5643   72.2544    2.2610 N.ar    1  UNL1       -0.2551
     16 C          25.4952   73.5829    2.4579 C.ar    1  UNL1        0.3323
     17 N          26.4948   74.2440    3.0707 N.ar    1  UNL1       -0.2743
     18 C          27.5909   73.5827    3.4898 C.ar    1  UNL1        0.2626
     19 C          27.6800   72.1842    3.2839 C.ar    1  UNL1        0.0795
     20 C          26.6612   71.5452    2.6705 C.ar    1  UNL1        0.0869
     21 O          24.5126   74.1928    2.0858 O.2     1  UNL1       -0.2464
     22 O          28.4983   74.1811    4.0403 O.2     1  UNL1       -0.2670
     23 H          26.4263   75.2022    3.2084 H       1  UNL1        0.1734
     24 O          21.5800   73.5259   -3.9306 O.3     1  UNL1       -0.2703
     25 P          20.8386   72.9560   -5.2404 P.3     1  UNL1        0.2208
     26 O          20.5854   74.0657   -6.1857 O.2     1  UNL1       -0.5170
     27 O          21.7734   71.8516   -5.9480 O.3     1  UNL1       -0.4371
     28 O          19.4404   72.2815   -4.8162 O.3     1  UNL1       -0.2858
     29 C          19.2996   71.0931   -5.5957 C.3     1  UNL1        0.2704
     30 C          18.1030   71.2405   -6.5369 C.3     1  UNL1        0.1967
     31 C          16.8422   71.4939   -5.7047 C.3     1  UNL1        0.1715
     32 C          16.7150   70.3823   -4.6570 C.3     1  UNL1        0.1694
     33 C          18.0172   70.3014   -3.8565 C.3     1  UNL1        0.1761
     34 O          18.3230   72.3400   -7.4222 O.3     1  UNL1       -0.3775
     35 O          15.6950   71.4874   -6.5569 O.3     1  UNL1       -0.3794
     36 O          16.4718   69.1356   -5.3102 O.3     1  UNL1       -0.3794
     37 O          19.0993   69.9791   -4.7289 O.3     1  UNL1       -0.3258
     38 H          19.1281   72.1412   -7.9193 H       1  UNL1        0.2106
     39 H          15.8236   72.1918   -7.2047 H       1  UNL1        0.2105
     40 H          15.6479   69.2349   -5.8049 H       1  UNL1        0.2105
     41 C          17.8882   69.2170   -2.7844 C.3     1  UNL1        0.1693
     42 O          18.0800   67.9332   -3.3811 O.3     1  UNL1       -0.3794
     43 H          17.9917   67.2797   -2.6737 H       1  UNL1        0.2105
@<TRIPOS>BOND
     1    15    16   ar
     2    15    20   ar
     3    15     6    1
     4    16    17   ar
     5    16    21    2
     6    17    18   ar
     7    17    23    1
     8    18    19   ar
     9    18    22    2
    10    19    20   ar
    11     6     7    1
    12     6    11    1
    13     7     8    1
    14     7     9    1
    15     8    13    1
    16     9    10    1
    17     9    12    1
    18    10    11    1
    19    10     5    1
    20    12    14    1
    21     5     4    1
    22     4     1    1
    23     1     2    2
    24     1     3    1
    25     1    24    1
    26    24    25    1
    27    25    26    2
    28    25    27    1
    29    25    28    1
    30    28    29    1
    31    29    30    1
    32    29    37    1
    33    30    31    1
    34    30    34    1
    35    31    32    1
    36    31    35    1
    37    32    33    1
    38    32    36    1
    39    33    41    1
    40    33    37    1
    41    41    42    1
    42    34    38    1
    43    35    39    1
    44    36    40    1
    45    42    43    1
@<TRIPOS>MOLECULE
GDU
 43 45 0 0 0
SMALL
GASTEIGER

@<TRIPOS>ATOM
      1 P          21.8315   72.3035   -6.2734 P.3     1  UNL1        0.2189
      2 O          23.2085   72.7087   -6.6327 O.2     1  UNL1       -0.5170
      3 O          20.8061   73.4818   -6.6647 O.3     1  UNL1       -0.4371
      4 O          21.4400   70.9639   -7.0728 O.3     1  UNL1       -0.3112
      5 C          20.5561   71.3535   -8.1252 C.3     1  UNL1        0.1811
      6 C          17.4041   70.1299   -6.9026 C.3     1  UNL1        0.2383
      7 C          17.0234   71.1716   -7.9856 C.3     1  UNL1        0.1895
      8 O          15.7922   70.8200   -8.6210 O.3     1  UNL1       -0.3779
      9 C          18.2101   71.0574   -8.9775 C.3     1  UNL1        0.1713
     10 C          19.3386   70.4275   -8.1401 C.3     1  UNL1        0.1764
     11 O          18.8385   70.2566   -6.8026 O.3     1  UNL1       -0.3308
     12 O          17.8628   70.2132  -10.0769 O.3     1  UNL1       -0.3794
     13 H          15.6131   71.5049   -9.2802 H       1  UNL1        0.2106
     14 H          17.1149   70.6307  -10.5252 H       1  UNL1        0.2105
     15 N          16.7673   70.4547   -5.6251 N.ar    1  UNL1       -0.2551
     16 C          16.4130   69.4653   -4.7861 C.ar    1  UNL1        0.3323
     17 N          15.8293   69.7370   -3.6040 N.ar    1  UNL1       -0.2743
     18 C          15.5806   71.0112   -3.2453 C.ar    1  UNL1        0.2626
     19 C          15.9432   72.0633   -4.1216 C.ar    1  UNL1        0.0795
     20 C          16.5311   71.7631   -5.2991 C.ar    1  UNL1        0.0869
     21 O          16.6314   68.3110   -5.0957 O.2     1  UNL1       -0.2464
     22 O          15.0480   71.2578   -2.1776 O.2     1  UNL1       -0.2670
     23 H          15.5841   69.0107   -3.0088 H       1  UNL1        0.1734
     24 O          21.7505   72.0276   -4.6891 O.3     1  UNL1       -0.2703
     25 P          22.8468   72.9783   -3.9933 P.3     1  UNL1        0.2208
     26 O          24.1979   72.4179   -4.2160 O.2     1  UNL1       -0.5170
     27 O          22.7649   74.4523   -4.6374 O.3     1  UNL1       -0.4371
     28 O          22.5556   73.0677   -2.4130 O.3     1  UNL1       -0.2858
     29 C          21.9627   71.8264   -2.0294 C.3     1  UNL1        0.2704
     30 C          20.5888   72.0881   -1.4104 C.3     1  UNL1        0.1967
     31 C          20.7560   73.0059   -0.1955 C.3     1  UNL1        0.1715
     32 C          21.7896   72.3837    0.7501 C.3     1  UNL1        0.1694
     33 C          23.0741   72.1012   -0.0330 C.3     1  UNL1        0.1761
     34 O          19.7416   72.7167   -2.3739 O.3     1  UNL1       -0.3775
     35 O          19.5039   73.1411    0.4801 O.3     1  UNL1       -0.3794
     36 O          21.2736   71.1648    1.2868 O.3     1  UNL1       -0.3794
     37 O          22.8039   71.1725   -1.0821 O.3     1  UNL1       -0.3258
     38 H          19.6706   72.1083   -3.1221 H       1  UNL1        0.2106
     39 H          18.8838   73.5235   -0.1537 H       1  UNL1        0.2105
     40 H          20.4649   71.3898    1.7649 H       1  UNL1        0.2105
     41 C          24.1251   71.5112    0.9100 C.3     1  UNL1        0.1693
     42 O          23.7848   70.1573    1.2138 O.3     1  UNL1       -0.3794
     43 H          24.4705   69.8230    1.8082 H       1  UNL1        0.2105
@<TRIPOS>BOND
     1    15    16   ar
     2    15    20   ar
     3    15     6    1
     4    16    17   ar
     5    16    21    2
     6    17    18   ar
     7    17    23    1
     8    18    19   ar
     9    18    22    2
    10    19    20   ar
    11     6     7    1
    12     6    11    1
    13     7     8    1
    14     7     9    1
    15     8    13    1
    16     9    10    1
    17     9    12    1
    18    10    11    1
    19    10     5    1
    20    12    14    1
    21     5     4    1
    22     4     1    1
    23     1     2    2
    24     1     3    1
    25     1    24    1
    26    24    25    1
    27    25    26    2
    28    25    27    1
    29    25    28    1
    30    28    29    1
    31    29    30    1
    32    29    37    1
    33    30    31    1
    34    30    34    1
    35    31    32    1
    36    31    35    1
    37    32    33    1
    38    32    36    1
    39    33    41    1
    40    33    37    1
    41    41    42    1
    42    34    38    1
    43    35    39    1
    44    36    40    1
    45    42    43    1
@<TRIPOS>MOLECULE
GDU
 43 45 0 0 0
SMALL
GASTEIGER

@<TRIPOS>ATOM
      1 P          20.9863   71.1587   -0.9385 P.3     1  UNL1        0.2189
      2 O          19.7448   70.6055   -1.5233 O.2     1  UNL1       -0.5170
      3 O          20.9141   72.7673   -0.9491 O.3     1  UNL1       -0.4371
      4 O          21.1451   70.6387    0.5752 O.3     1  UNL1       -0.3112
      5 C          22.4119   71.1051    1.0422 C.3     1  UNL1        0.1811
      6 C          23.3122   73.0737    3.9130 C.3     1  UNL1        0.2383
      7 C          22.1685   73.8722    3.2369 C.3     1  UNL1        0.1895
      8 O          21.4110   74.5989    4.2071 O.3     1  UNL1       -0.3779
      9 C          21.3155   72.7433    2.6017 C.3     1  UNL1        0.1713
     10 C          22.2869   71.5526    2.4997 C.3     1  UNL1        0.1764
     11 O          23.5654   71.9970    2.9857 O.3     1  UNL1       -0.3308
     12 O          20.2061   72.4218    3.4430 O.3     1  UNL1       -0.3794
     13 H          20.7193   75.0718    3.7237 H       1  UNL1        0.2106
     14 H          19.6683   73.2220    3.5152 H       1  UNL1        0.2105
     15 N          24.5038   73.9091    4.0713 N.ar    1  UNL1       -0.2551
     16 C          24.7009   74.5788    5.2206 C.ar    1  UNL1        0.3323
     17 N          25.7900   75.3508    5.3931 N.ar    1  UNL1       -0.2743
     18 C          26.6998   75.4731    4.4074 C.ar    1  UNL1        0.2626
     19 C          26.5024   74.7781    3.1891 C.ar    1  UNL1        0.0795
     20 C          25.4036   74.0072    3.0442 C.ar    1  UNL1        0.0869
     21 O          23.8891   74.4779    6.1189 O.2     1  UNL1       -0.2464
     22 O          27.6834   76.1755    4.5608 O.2     1  UNL1       -0.2670
     23 H          25.9183   75.8237    6.2307 H       1  UNL1        0.1734
     24 O          22.2509   70.6739   -1.8092 O.3     1  UNL1       -0.2703
     25 P          22.7495   71.9477   -2.6571 P.3     1  UNL1        0.2208
     26 O          23.0757   73.0572   -1.7343 O.2     1  UNL1       -0.5170
     27 O          24.0618   71.5495   -3.5018 O.3     1  UNL1       -0.4371
     28 O          21.5843   72.4120   -3.6655 O.3     1  UNL1       -0.2858
     29 C          21.5436   71.4525   -4.7226 C.3     1  UNL1        0.2704
     30 C          21.8430   72.1469   -6.0521 C.3     1  UNL1        0.1967
     31 C          20.8059   73.2503   -6.2830 C.3     1  UNL1        0.1715
     32 C          19.4053   72.6382   -6.1676 C.3     1  UNL1        0.1694
     33 C          19.2901   71.9078   -4.8274 C.3     1  UNL1        0.1761
     34 O          23.1514   72.7191   -6.0093 O.3     1  UNL1       -0.3775
     35 O          20.9821   73.8097   -7.5862 O.3     1  UNL1       -0.3794
     36 O          19.1967   71.7169   -7.2389 O.3     1  UNL1       -0.3794
     37 O          20.2505   70.8541   -4.7694 O.3     1  UNL1       -0.3258
     38 H          23.7692   71.9914   -5.8554 H       1  UNL1        0.2106
     39 H          21.8771   74.1708   -7.6171 H       1  UNL1        0.2105
     40 H          19.2840   72.2181   -8.0601 H       1  UNL1        0.2105
     41 C          17.8834   71.3219   -4.6871 C.3     1  UNL1        0.1693
     42 O          17.8345   70.0445   -5.3249 O.3     1  UNL1       -0.3794
     43 H          16.9340   69.7101   -5.2134 H       1  UNL1        0.2105
@<TRIPOS>BOND
     1    15    16   ar
     2    15    20   ar
     3    15     6    1
     4    16    17   ar
     5    16    21    2
     6    17    18   ar
     7    17    23    1
     8    18    19   ar
     9    18    22    2
    10    19    20   ar
    11     6     7    1
    12     6    11    1
    13     7     8    1
    14     7     9    1
    15     8    13    1
    16     9    10    1
    17     9    12    1
    18    10    11    1
    19    10     5    1
    20    12    14    1
    21     5     4    1
    22     4     1    1
    23     1     2    2
    24     1     3    1
    25     1    24    1
    26    24    25    1
    27    25    26    2
    28    25    27    1
    29    25    28    1
    30    28    29    1
    31    29    30    1
    32    29    37    1
    33    30    31    1
    34    30    34    1
    35    31    32    1
    36    31    35    1
    37    32    33    1
    38    32    36    1
    39    33    41    1
    40    33    37    1
    41    41    42    1
    42    34    38    1
    43    35    39    1
    44    36    40    1
    45    42    43    1
@<TRIPOS>MOLECULE
GDU
 43 45 0 0 0
SMALL
GASTEIGER

@<TRIPOS>ATOM
      1 P          22.2955   73.7355   -4.8115 P.3     1  UNL1        0.2189
      2 O          22.4750   74.9685   -5.6096 O.2     1  UNL1       -0.5170
      3 O          23.3949   72.6452   -5.2537 O.3     1  UNL1       -0.4371
      4 O          22.4751   74.0757   -3.2498 O.3     1  UNL1       -0.3112
      5 C          21.4035   73.4305   -2.5598 C.3     1  UNL1        0.1811
      6 C          23.1978   71.5106   -0.1060 C.3     1  UNL1        0.2383
      7 C          21.7498   71.5868    0.4423 C.3     1  UNL1        0.1895
      8 O          21.4303   70.4193    1.2027 O.3     1  UNL1       -0.3779
      9 C          20.9115   71.6444   -0.8612 C.3     1  UNL1        0.1713
     10 C          21.9099   72.1332   -1.9270 C.3     1  UNL1        0.1764
     11 O          23.1647   72.3697   -1.2654 O.3     1  UNL1       -0.3308
     12 O          20.4118   70.3471   -1.1916 O.3     1  UNL1       -0.3794
     13 H          20.5210   70.5294    1.5138 H       1  UNL1        0.2106
     14 H          19.8417   70.0720   -0.4609 H       1  UNL1        0.2105
     15 N          24.1530   72.0144    0.8823 N.ar    1  UNL1       -0.2551
     16 C          24.8089   71.1501    1.6767 C.ar    1  UNL1        0.3323
     17 N          25.6949   71.5870    2.5909 N.ar    1  UNL1       -0.2743
     18 C          25.9324   72.9053    2.7319 C.ar    1  UNL1        0.2626
     19 C          25.2445   73.8277    1.9059 C.ar    1  UNL1        0.0795
     20 C          24.3644   73.3623    0.9942 C.ar    1  UNL1        0.0869
     21 O          24.6055   69.9579    1.5608 O.2     1  UNL1       -0.2464
     22 O          26.7307   73.3020    3.5625 O.2     1  UNL1       -0.2670
     23 H          26.1625   70.9488    3.1530 H       1  UNL1        0.1734
     24 O          20.8205   73.1422   -5.0666 O.3     1  UNL1       -0.2703
     25 P          20.7554   72.7029   -6.6135 P.3     1  UNL1        0.2208
     26 O          21.3236   73.7784   -7.4558 O.2     1  UNL1       -0.5170
     27 O          21.6060   71.3514   -6.8236 O.3     1  UNL1       -0.4371
     28 O          19.2241   72.4426   -7.0345 O.3     1  UNL1       -0.2858
     29 C          19.0754   71.0328   -7.2083 C.3     1  UNL1        0.2704
     30 C          18.0529   70.7610   -8.3128 C.3     1  UNL1        0.1967
     31 C          16.7170   71.4019   -7.9242 C.3     1  UNL1        0.1715
     32 C          16.3204   70.9016   -6.5306 C.3     1  UNL1        0.1694
     33 C          17.4745   71.1648   -5.5602 C.3     1  UNL1        0.1761
     34 O          18.5155   71.3230   -9.5421 O.3     1  UNL1       -0.3775
     35 O          15.7137   71.0332   -8.8729 O.3     1  UNL1       -0.3794
     36 O          16.0463   69.5009   -6.5859 O.3     1  UNL1       -0.3794
     37 O          18.6334   70.4490   -5.9850 O.3     1  UNL1       -0.3258
     38 H          19.3597   70.8967   -9.7436 H       1  UNL1        0.2106
     39 H          16.0097   71.3564   -9.7332 H       1  UNL1        0.2105
     40 H          15.3194   69.3825   -7.2112 H       1  UNL1        0.2105
     41 C          17.0755   70.7000   -4.1578 C.3     1  UNL1        0.1693
     42 O          15.6601   70.8171   -4.0028 O.3     1  UNL1       -0.3794
     43 H          15.4505   70.5144   -3.1086 H       1  UNL1        0.2105
@<TRIPOS>BOND
     1    15    16   ar
     2    15    20   ar
     3    15     6    1
     4    16    17   ar
     5    16    21    2
     6    17    18   ar
     7    17    23    1
     8    18    19   ar
     9    18    22    2
    10    19    20   ar
    11     6     7    1
    12     6    11    1
    13     7     8    1
    14     7     9    1
    15     8    13    1
    16     9    10    1
    17     9    12    1
    18    10    11    1
    19    10     5    1
    20    12    14    1
    21     5     4    1
    22     4     1    1
    23     1     2    2
    24     1     3    1
    25     1    24    1
    26    24    25    1
    27    25    26    2
    28    25    27    1
    29    25    28    1
    30    28    29    1
    31    29    30    1
    32    29    37    1
    33    30    31    1
    34    30    34    1
    35    31    32    1
    36    31    35    1
    37    32    33    1
    38    32    36    1
    39    33    41    1
    40    33    37    1
    41    41    42    1
    42    34    38    1
    43    35    39    1
    44    36    40    1
    45    42    43    1
