@<TRIPOS>MOLECULE
UD2
 46 48 0 0 0
SMALL
GASTEIGER

@<TRIPOS>ATOM
      1 P          20.7440   70.8954   -3.3210 P.3     1  UNL1        0.2189
      2 O          21.1151   70.2789   -1.8810 O.3     1  UNL1       -0.4371
      3 O          20.5897   69.7993   -4.3026 O.2     1  UNL1       -0.5170
      4 O          19.3634   71.7175   -3.2130 O.3     1  UNL1       -0.3112
      5 C          18.2151   71.2209   -2.5228 C.3     1  UNL1        0.1811
      6 C          16.8149   70.6213   -5.7810 C.3     1  UNL1        0.2383
      7 C          16.9115   69.2164   -5.1339 C.3     1  UNL1        0.1895
      8 O          15.8719   68.3613   -5.6134 O.3     1  UNL1       -0.3779
      9 C          16.7148   69.5360   -3.6317 C.3     1  UNL1        0.1713
     10 C          17.0658   71.0316   -3.5159 C.3     1  UNL1        0.1764
     11 O          17.4683   71.4789   -4.8202 O.3     1  UNL1       -0.3308
     12 O          15.3580   69.3089   -3.2468 O.3     1  UNL1       -0.3794
     13 H          15.8904   67.4706   -5.2380 H       1  UNL1        0.2106
     14 H          15.0653   68.3941   -3.3555 H       1  UNL1        0.2105
     15 N          17.5228   70.6486   -7.0629 N.ar    1  UNL1       -0.2551
     16 C          16.8323   70.5095   -8.2086 C.ar    1  UNL1        0.3323
     17 N          17.4570   70.5305   -9.4009 N.ar    1  UNL1       -0.2743
     18 C          18.7941   70.6943   -9.4638 C.ar    1  UNL1        0.2626
     19 C          19.5333   70.8429   -8.2656 C.ar    1  UNL1        0.0795
     20 C          18.8805   70.8223   -7.0845 C.ar    1  UNL1        0.0869
     21 O          15.6262   70.3612   -8.1670 O.2     1  UNL1       -0.2464
     22 O          19.3606   70.7139  -10.5423 O.2     1  UNL1       -0.2670
     23 H          16.9441   70.4276  -10.2173 H       1  UNL1        0.1734
     24 O          21.9206   71.8846   -3.8010 O.3     1  UNL1       -0.2703
     25 P          23.4238   72.1622   -3.2946 P.3     1  UNL1        0.2208
     26 O          24.1572   70.7595   -2.9977 O.3     1  UNL1       -0.4371
     27 O          24.1693   72.8963   -4.3405 O.2     1  UNL1       -0.5170
     28 O          23.3820   73.0423   -1.9469 O.3     1  UNL1       -0.2865
     29 C          22.1664   73.5117   -1.3611 C.3     1  UNL1        0.2611
     30 C          22.3899   74.9043   -0.7664 C.3     1  UNL1        0.1582
     31 C          23.4377   74.8123    0.3471 C.3     1  UNL1        0.1625
     32 C          22.9649   73.8023    1.3962 C.3     1  UNL1        0.1686
     33 C          22.7192   72.4519    0.7180 C.3     1  UNL1        0.1760
     34 O          23.5991   76.0948    0.9576 O.3     1  UNL1       -0.3801
     35 O          21.7520   74.2655    1.9926 O.3     1  UNL1       -0.3794
     36 O          21.7583   72.6134   -0.3273 O.3     1  UNL1       -0.3263
     37 H          24.2500   76.1104    1.6727 H       1  UNL1        0.2105
     38 H          21.3936   73.6727    2.6681 H       1  UNL1        0.2105
     39 C          24.1881   75.9574   -2.0295 C.2     1  UNL1        0.2231
     40 C          24.6782   76.8907   -3.1052 C.3     1  UNL1        0.0946
     41 N          22.8659   75.8125   -1.8129 N.am    1  UNL1       -0.2994
     42 O          24.9838   75.3353   -1.3571 O.2     1  UNL1       -0.2751
     43 H          22.2294   76.3105   -2.3495 H       1  UNL1        0.1496
     44 C          22.1893   71.4529    1.7484 C.3     1  UNL1        0.1693
     45 O          21.6040   70.3371    1.0740 O.3     1  UNL1       -0.3794
     46 H          21.2462   69.6620    1.6667 H       1  UNL1        0.2105
@<TRIPOS>BOND
     1    29    30    1
     2    30    41    1
     3    30    31    1
     4    31    34    1
     5    31    32    1
     6    32    35    1
     7    32    33    1
     8    33    36    1
     9    33    44    1
    10    39    40    1
    11    39    42    2
    12    39    41   am
    13    41    43    1
    14    29    28    1
    15    34    37    1
    16    35    38    1
    17    29    36    1
    18    44    45    1
    19    45    46    1
    20    15     6    1
    21    15    16   ar
    22    16    21    2
    23    16    17   ar
    24    17    23    1
    25    17    18   ar
    26    18    19   ar
    27    19    20   ar
    28    15    20   ar
    29    18    22    2
    30     6     7    1
    31     6    11    1
    32     7     9    1
    33     7     8    1
    34     8    13    1
    35     9    10    1
    36     9    12    1
    37    10     5    1
    38    10    11    1
    39    12    14    1
    40     5     4    1
    41     4     1    1
    42     1     2    1
    43     1    24    1
    44     1     3    2
    45    24    25    1
    46    28    25    1
    47    25    26    1
    48    25    27    2
@<TRIPOS>MOLECULE
UD2
 46 48 0 0 0
SMALL
GASTEIGER

@<TRIPOS>ATOM
      1 P          20.6034   70.9464   -2.9073 P.3     1  UNL1        0.2189
      2 O          20.6156   70.4517   -1.3755 O.3     1  UNL1       -0.4371
      3 O          20.7853   69.7833   -3.8035 O.2     1  UNL1       -0.5170
      4 O          19.1949   71.6576   -3.2301 O.3     1  UNL1       -0.3112
      5 C          17.9855   71.3351   -2.5410 C.3     1  UNL1        0.1811
      6 C          16.7154   70.5579   -5.8150 C.3     1  UNL1        0.2383
      7 C          16.8592   69.1820   -5.1161 C.3     1  UNL1        0.1895
      8 O          15.8767   68.2615   -5.5949 O.3     1  UNL1       -0.3779
      9 C          16.6018   69.5425   -3.6324 C.3     1  UNL1        0.1713
     10 C          16.8773   71.0565   -3.5595 C.3     1  UNL1        0.1764
     11 O          17.2976   71.4783   -4.8667 O.3     1  UNL1       -0.3308
     12 O          15.2463   69.2627   -3.2790 O.3     1  UNL1       -0.3794
     13 H          15.9262   67.3860   -5.1878 H       1  UNL1        0.2106
     14 H          15.0011   68.3315   -3.3637 H       1  UNL1        0.2105
     15 N          17.4600   70.5761   -7.0761 N.ar    1  UNL1       -0.2551
     16 C          16.7928   70.5925   -8.2438 C.ar    1  UNL1        0.3323
     17 N          17.4513   70.6092   -9.4178 N.ar    1  UNL1       -0.2743
     18 C          18.7996   70.6117   -9.4397 C.ar    1  UNL1        0.2626
     19 C          19.5147   70.5956   -8.2180 C.ar    1  UNL1        0.0795
     20 C          18.8288   70.5832   -7.0558 C.ar    1  UNL1        0.0869
     21 O          15.5769   70.5907   -8.2391 O.2     1  UNL1       -0.2464
     22 O          19.3968   70.6272  -10.5016 O.2     1  UNL1       -0.2670
     23 H          16.9547   70.6197  -10.2505 H       1  UNL1        0.1734
     24 O          21.8007   71.9975   -3.1418 O.3     1  UNL1       -0.2703
     25 P          23.3100   72.1134   -2.5926 P.3     1  UNL1        0.2208
     26 O          24.1659   70.8496   -3.1064 O.3     1  UNL1       -0.4371
     27 O          23.9238   73.3616   -3.0960 O.2     1  UNL1       -0.5170
     28 O          23.2951   72.1333   -0.9827 O.3     1  UNL1       -0.2865
     29 C          23.4738   73.3264   -0.2172 C.3     1  UNL1        0.2611
     30 C          23.5360   72.9744    1.2710 C.3     1  UNL1        0.1582
     31 C          22.2050   72.3454    1.6941 C.3     1  UNL1        0.1625
     32 C          21.0679   73.3199    1.3751 C.3     1  UNL1        0.1686
     33 C          21.1008   73.6585   -0.1176 C.3     1  UNL1        0.1760
     34 O          22.2273   72.0808    3.0987 O.3     1  UNL1       -0.3801
     35 O          21.2341   74.5149    2.1403 O.3     1  UNL1       -0.3794
     36 O          22.3759   74.2107   -0.4511 O.3     1  UNL1       -0.3263
     37 H          21.4143   71.6804    3.4360 H       1  UNL1        0.2105
     38 H          20.5476   75.1793    1.9876 H       1  UNL1        0.2105
     39 C          25.6176   72.3279    2.3605 C.2     1  UNL1        0.2231
     40 C          26.7362   71.3482    2.6001 C.3     1  UNL1        0.0946
     41 N          24.6239   72.0210    1.5034 N.am    1  UNL1       -0.2994
     42 O          25.6105   73.3943    2.9393 O.2     1  UNL1       -0.2751
     43 H          24.6297   71.1690    1.0397 H       1  UNL1        0.1496
     44 C          20.0047   74.6780   -0.4333 C.3     1  UNL1        0.1693
     45 O          19.1880   74.1861   -1.4979 O.3     1  UNL1       -0.3794
     46 H          18.4704   74.7825   -1.7517 H       1  UNL1        0.2105
@<TRIPOS>BOND
     1    29    30    1
     2    30    41    1
     3    30    31    1
     4    31    34    1
     5    31    32    1
     6    32    35    1
     7    32    33    1
     8    33    36    1
     9    33    44    1
    10    39    40    1
    11    39    42    2
    12    39    41   am
    13    41    43    1
    14    29    28    1
    15    34    37    1
    16    35    38    1
    17    29    36    1
    18    44    45    1
    19    45    46    1
    20    15     6    1
    21    15    16   ar
    22    16    21    2
    23    16    17   ar
    24    17    23    1
    25    17    18   ar
    26    18    19   ar
    27    19    20   ar
    28    15    20   ar
    29    18    22    2
    30     6     7    1
    31     6    11    1
    32     7     9    1
    33     7     8    1
    34     8    13    1
    35     9    10    1
    36     9    12    1
    37    10     5    1
    38    10    11    1
    39    12    14    1
    40     5     4    1
    41     4     1    1
    42     1     2    1
    43     1    24    1
    44     1     3    2
    45    24    25    1
    46    28    25    1
    47    25    26    1
    48    25    27    2
@<TRIPOS>MOLECULE
UD2
 46 48 0 0 0
SMALL
GASTEIGER

@<TRIPOS>ATOM
      1 P          20.0725   71.7879   -1.0518 P.3     1  UNL1        0.2189
      2 O          20.7405   72.4058   -2.3798 O.3     1  UNL1       -0.4371
      3 O          19.3856   72.8607   -0.2994 O.2     1  UNL1       -0.5170
      4 O          19.0057   70.6546   -1.4655 O.3     1  UNL1       -0.3112
      5 C          19.0737   69.9363   -2.6987 C.3     1  UNL1        0.1811
      6 C          17.2843   70.3244   -5.7945 C.3     1  UNL1        0.2383
      7 C          16.9880   68.8686   -5.3530 C.3     1  UNL1        0.1895
      8 O          15.6953   68.4536   -5.7983 O.3     1  UNL1       -0.3779
      9 C          17.0305   68.9818   -3.8094 C.3     1  UNL1        0.1713
     10 C          17.8433   70.2642   -3.5481 C.3     1  UNL1        0.1764
     11 O          18.2538   70.7782   -4.8251 O.3     1  UNL1       -0.3308
     12 O          15.7091   69.1104   -3.2821 O.3     1  UNL1       -0.3794
     13 H          15.4640   67.5492   -5.5471 H       1  UNL1        0.2106
     14 H          15.1350   68.3555   -3.4689 H       1  UNL1        0.2105
     15 N          17.8532   70.3486   -7.1439 N.ar    1  UNL1       -0.2551
     16 C          17.0365   70.4193   -8.2102 C.ar    1  UNL1        0.3323
     17 N          17.5318   70.4428   -9.4617 N.ar    1  UNL1       -0.2743
     18 C          18.8641   70.3973   -9.6655 C.ar    1  UNL1        0.2626
     19 C          19.7354   70.3238   -8.5521 C.ar    1  UNL1        0.0795
     20 C          19.2115   70.3060   -7.3084 C.ar    1  UNL1        0.0869
     21 O          15.8331   70.4612   -8.0415 O.2     1  UNL1       -0.2464
     22 O          19.3136   70.4190  -10.7977 O.2     1  UNL1       -0.2670
     23 H          16.9288   70.4928  -10.2194 H       1  UNL1        0.1734
     24 O          21.2186   71.1337   -0.1288 O.3     1  UNL1       -0.2703
     25 P          22.7724   71.4683    0.1293 P.3     1  UNL1        0.2208
     26 O          23.2910   70.6483    1.4148 O.3     1  UNL1       -0.4371
     27 O          23.5651   71.0776   -1.0570 O.2     1  UNL1       -0.5170
     28 O          22.9445   73.0472    0.3941 O.3     1  UNL1       -0.2865
     29 C          24.2185   73.6894    0.4701 C.3     1  UNL1        0.2611
     30 C          24.3112   74.4890    1.7719 C.3     1  UNL1        0.1582
     31 C          23.2386   75.5826    1.7668 C.3     1  UNL1        0.1625
     32 C          23.4294   76.4640    0.5295 C.3     1  UNL1        0.1686
     33 C          23.3707   75.5881   -0.7248 C.3     1  UNL1        0.1760
     34 O          23.3652   76.3807    2.9459 O.3     1  UNL1       -0.3801
     35 O          24.6989   77.1158    0.5985 O.3     1  UNL1       -0.3794
     36 O          24.3731   74.5731   -0.6424 O.3     1  UNL1       -0.3263
     37 H          22.7153   77.0941    3.0091 H       1  UNL1        0.2105
     38 H          24.8877   77.6917   -0.1556 H       1  UNL1        0.2105
     39 C          22.8599   73.4622    3.4385 C.2     1  UNL1        0.2231
     40 C          22.6351   72.5429    4.6102 C.3     1  UNL1        0.0946
     41 N          24.0933   73.5948    2.9119 N.am    1  UNL1       -0.2994
     42 O          21.9303   74.0840    2.9680 O.2     1  UNL1       -0.2751
     43 H          24.8370   73.0985    3.2883 H       1  UNL1        0.1496
     44 C          23.6200   76.4524   -1.9623 C.3     1  UNL1        0.1693
     45 O          23.3030   77.8138   -1.6651 O.3     1  UNL1       -0.3794
     46 H          23.4377   78.4203   -2.4060 H       1  UNL1        0.2105
@<TRIPOS>BOND
     1    29    30    1
     2    30    41    1
     3    30    31    1
     4    31    34    1
     5    31    32    1
     6    32    35    1
     7    32    33    1
     8    33    36    1
     9    33    44    1
    10    39    40    1
    11    39    42    2
    12    39    41   am
    13    41    43    1
    14    29    28    1
    15    34    37    1
    16    35    38    1
    17    29    36    1
    18    44    45    1
    19    45    46    1
    20    15     6    1
    21    15    16   ar
    22    16    21    2
    23    16    17   ar
    24    17    23    1
    25    17    18   ar
    26    18    19   ar
    27    19    20   ar
    28    15    20   ar
    29    18    22    2
    30     6     7    1
    31     6    11    1
    32     7     9    1
    33     7     8    1
    34     8    13    1
    35     9    10    1
    36     9    12    1
    37    10     5    1
    38    10    11    1
    39    12    14    1
    40     5     4    1
    41     4     1    1
    42     1     2    1
    43     1    24    1
    44     1     3    2
    45    24    25    1
    46    28    25    1
    47    25    26    1
    48    25    27    2
@<TRIPOS>MOLECULE
UD2
 46 48 0 0 0
SMALL
GASTEIGER

@<TRIPOS>ATOM
      1 P          19.7938   72.3796   -1.6953 P.3     1  UNL1        0.2189
      2 O          20.5678   72.4489   -3.1050 O.3     1  UNL1       -0.4371
      3 O          18.8068   73.4791   -1.6192 O.2     1  UNL1       -0.5170
      4 O          19.0329   70.9657   -1.5699 O.3     1  UNL1       -0.3112
      5 C          18.9622   70.0235   -2.6416 C.3     1  UNL1        0.1811
      6 C          17.1948   70.3649   -5.7556 C.3     1  UNL1        0.2383
      7 C          16.9238   68.9049   -5.3117 C.3     1  UNL1        0.1895
      8 O          15.6439   68.4624   -5.7677 O.3     1  UNL1       -0.3779
      9 C          16.9493   69.0242   -3.7681 C.3     1  UNL1        0.1713
     10 C          17.7335   70.3237   -3.5038 C.3     1  UNL1        0.1764
     11 O          18.1457   70.8415   -4.7787 O.3     1  UNL1       -0.3308
     12 O          15.6206   69.1279   -3.2538 O.3     1  UNL1       -0.3794
     13 H          15.4286   67.5543   -5.5154 H       1  UNL1        0.2106
     14 H          15.0636   68.3609   -3.4433 H       1  UNL1        0.2105
     15 N          17.7759   70.3960   -7.0996 N.ar    1  UNL1       -0.2551
     16 C          16.9689   70.4715   -8.1729 C.ar    1  UNL1        0.3323
     17 N          17.4755   70.5014   -9.4198 N.ar    1  UNL1       -0.2743
     18 C          18.8096   70.4576   -9.6116 C.ar    1  UNL1        0.2626
     19 C          19.6708   70.3790   -8.4908 C.ar    1  UNL1        0.0795
     20 C          19.1357   70.3548   -7.2520 C.ar    1  UNL1        0.0869
     21 O          15.7640   70.5120   -8.0149 O.2     1  UNL1       -0.2464
     22 O          19.2693   70.4850  -10.7396 O.2     1  UNL1       -0.2670
     23 H          16.8794   70.5548  -10.1827 H       1  UNL1        0.1734
     24 O          20.8545   72.5260   -0.4925 O.3     1  UNL1       -0.2703
     25 P          22.0116   71.5753    0.0994 P.3     1  UNL1        0.2208
     26 O          21.3418   70.3709    0.9328 O.3     1  UNL1       -0.4371
     27 O          22.8111   71.0191   -1.0140 O.2     1  UNL1       -0.5170
     28 O          22.9671   72.4339    1.0702 O.3     1  UNL1       -0.2865
     29 C          22.6744   73.7762    1.4623 C.3     1  UNL1        0.2611
     30 C          23.9487   74.6206    1.3856 C.3     1  UNL1        0.1582
     31 C          24.9805   74.0628    2.3708 C.3     1  UNL1        0.1625
     32 C          24.3746   74.0528    3.7769 C.3     1  UNL1        0.1686
     33 C          23.0836   73.2300    3.7614 C.3     1  UNL1        0.1760
     34 O          26.1468   74.8893    2.3592 O.3     1  UNL1       -0.3801
     35 O          24.0833   75.3919    4.1811 O.3     1  UNL1       -0.3794
     36 O          22.1795   73.7832    2.8030 O.3     1  UNL1       -0.3263
     37 H          26.8438   74.5937    2.9609 H       1  UNL1        0.2105
     38 H          23.6952   75.4612    5.0645 H       1  UNL1        0.2105
     39 C          24.5484   75.6854   -0.7225 C.2     1  UNL1        0.2231
     40 C          25.1058   75.6302   -2.1206 C.3     1  UNL1        0.0946
     41 N          24.4907   74.5660    0.0256 N.am    1  UNL1       -0.2994
     42 O          24.1509   76.7383   -0.2689 O.2     1  UNL1       -0.2751
     43 H          24.8075   73.7239   -0.3370 H       1  UNL1        0.1496
     44 C          22.4403   73.2646    5.1490 C.3     1  UNL1        0.1693
     45 O          22.5875   71.9883    5.7750 O.3     1  UNL1       -0.3794
     46 H          22.2018   71.9370    6.6603 H       1  UNL1        0.2105
@<TRIPOS>BOND
     1    29    30    1
     2    30    41    1
     3    30    31    1
     4    31    34    1
     5    31    32    1
     6    32    35    1
     7    32    33    1
     8    33    36    1
     9    33    44    1
    10    39    40    1
    11    39    42    2
    12    39    41   am
    13    41    43    1
    14    29    28    1
    15    34    37    1
    16    35    38    1
    17    29    36    1
    18    44    45    1
    19    45    46    1
    20    15     6    1
    21    15    16   ar
    22    16    21    2
    23    16    17   ar
    24    17    23    1
    25    17    18   ar
    26    18    19   ar
    27    19    20   ar
    28    15    20   ar
    29    18    22    2
    30     6     7    1
    31     6    11    1
    32     7     9    1
    33     7     8    1
    34     8    13    1
    35     9    10    1
    36     9    12    1
    37    10     5    1
    38    10    11    1
    39    12    14    1
    40     5     4    1
    41     4     1    1
    42     1     2    1
    43     1    24    1
    44     1     3    2
    45    24    25    1
    46    28    25    1
    47    25    26    1
    48    25    27    2
@<TRIPOS>MOLECULE
UD2
 46 48 0 0 0
SMALL
GASTEIGER

@<TRIPOS>ATOM
      1 P          22.6686   72.1527   -3.7973 P.3     1  UNL1        0.2189
      2 O          23.6560   72.4715   -5.0280 O.3     1  UNL1       -0.4371
      3 O          23.1509   70.9552   -3.0745 O.2     1  UNL1       -0.5170
      4 O          22.6403   73.4109   -2.7924 O.3     1  UNL1       -0.3112
      5 C          21.9792   73.3794   -1.5261 C.3     1  UNL1        0.1811
      6 C          23.9339   71.8370    1.0694 C.3     1  UNL1        0.2383
      7 C          22.5527   72.0957    1.7233 C.3     1  UNL1        0.1895
      8 O          22.2639   71.1068    2.7135 O.3     1  UNL1       -0.3779
      9 C          21.5919   71.9657    0.5161 C.3     1  UNL1        0.1713
     10 C          22.4960   72.1915   -0.7108 C.3     1  UNL1        0.1764
     11 O          23.8176   72.4717   -0.2226 O.3     1  UNL1       -0.3308
     12 O          21.0128   70.6603    0.4777 O.3     1  UNL1       -0.3794
     13 H          21.4104   71.2261    3.1516 H       1  UNL1        0.2106
     14 H          20.4806   70.4423    1.2547 H       1  UNL1        0.2105
     15 N          25.0015   72.4588    1.8559 N.ar    1  UNL1       -0.2551
     16 C          25.9168   71.6851    2.4662 C.ar    1  UNL1        0.3323
     17 N          26.9087   72.2296    3.1956 N.ar    1  UNL1       -0.2743
     18 C          27.0003   73.5688    3.3239 C.ar    1  UNL1        0.2626
     19 C          26.0443   74.3953    2.6860 C.ar    1  UNL1        0.0795
     20 C          25.0630   73.8226    1.9576 C.ar    1  UNL1        0.0869
     21 O          25.8466   70.4760    2.3590 O.2     1  UNL1       -0.2464
     22 O          27.8978   74.0629    3.9834 O.2     1  UNL1       -0.2670
     23 H          27.5596   71.6571    3.6300 H       1  UNL1        0.1734
     24 O          21.1834   71.8803   -4.3570 O.3     1  UNL1       -0.2703
     25 P          19.7486   71.6616   -3.6595 P.3     1  UNL1        0.2208
     26 O          19.9136   70.6875   -2.3876 O.3     1  UNL1       -0.4371
     27 O          19.2121   72.9663   -3.2145 O.2     1  UNL1       -0.5170
     28 O          18.7336   70.9961   -4.7176 O.3     1  UNL1       -0.2865
     29 C          17.8848   71.7651   -5.5717 C.3     1  UNL1        0.2611
     30 C          16.5385   71.0541   -5.7291 C.3     1  UNL1        0.1582
     31 C          16.7639   69.6950   -6.3987 C.3     1  UNL1        0.1625
     32 C          17.4672   69.9100   -7.7416 C.3     1  UNL1        0.1686
     33 C          18.7781   70.6652   -7.5065 C.3     1  UNL1        0.1760
     34 O          15.5041   69.0555   -6.6164 O.3     1  UNL1       -0.3801
     35 O          16.6238   70.6736   -8.6057 O.3     1  UNL1       -0.3794
     36 O          18.5008   71.9056   -6.8535 O.3     1  UNL1       -0.3263
     37 H          15.5716   68.1877   -7.0376 H       1  UNL1        0.2105
     38 H          17.0073   70.8490   -9.4765 H       1  UNL1        0.2105
     39 C          16.1981   69.7362   -3.7079 C.2     1  UNL1        0.2231
     40 C          15.5761   69.5314   -2.3516 C.3     1  UNL1        0.0946
     41 N          15.9328   70.8555   -4.4099 N.am    1  UNL1       -0.2994
     42 O          16.9387   68.8930   -4.1694 O.2     1  UNL1       -0.2751
     43 H          15.3401   71.5294   -4.0418 H       1  UNL1        0.1496
     44 C          19.4581   70.9365   -8.8499 C.3     1  UNL1        0.1693
     45 O          20.5709   71.8113   -8.6532 O.3     1  UNL1       -0.3794
     46 H          21.0504   72.0271   -9.4647 H       1  UNL1        0.2105
@<TRIPOS>BOND
     1    29    30    1
     2    30    41    1
     3    30    31    1
     4    31    34    1
     5    31    32    1
     6    32    35    1
     7    32    33    1
     8    33    36    1
     9    33    44    1
    10    39    40    1
    11    39    42    2
    12    39    41   am
    13    41    43    1
    14    29    28    1
    15    34    37    1
    16    35    38    1
    17    29    36    1
    18    44    45    1
    19    45    46    1
    20    15     6    1
    21    15    16   ar
    22    16    21    2
    23    16    17   ar
    24    17    23    1
    25    17    18   ar
    26    18    19   ar
    27    19    20   ar
    28    15    20   ar
    29    18    22    2
    30     6     7    1
    31     6    11    1
    32     7     9    1
    33     7     8    1
    34     8    13    1
    35     9    10    1
    36     9    12    1
    37    10     5    1
    38    10    11    1
    39    12    14    1
    40     5     4    1
    41     4     1    1
    42     1     2    1
    43     1    24    1
    44     1     3    2
    45    24    25    1
    46    28    25    1
    47    25    26    1
    48    25    27    2
@<TRIPOS>MOLECULE
UD2
 46 48 0 0 0
SMALL
GASTEIGER

@<TRIPOS>ATOM
      1 P          23.0487   72.9046   -3.8618 P.3     1  UNL1        0.2189
      2 O          23.7184   74.0696   -4.7482 O.3     1  UNL1       -0.4371
      3 O          23.8868   71.6874   -3.9315 O.2     1  UNL1       -0.5170
      4 O          22.9369   73.3923   -2.3310 O.3     1  UNL1       -0.3112
      5 C          22.0053   72.8331   -1.4033 C.3     1  UNL1        0.1811
      6 C          24.2141   72.0972    1.3383 C.3     1  UNL1        0.2383
      7 C          22.8058   72.1708    1.9814 C.3     1  UNL1        0.1895
      8 O          22.7139   71.2981    3.1091 O.3     1  UNL1       -0.3779
      9 C          21.8958   71.6811    0.8284 C.3     1  UNL1        0.1713
     10 C          22.7432   71.9007   -0.4394 C.3     1  UNL1        0.1764
     11 O          23.9806   72.5031   -0.0278 O.3     1  UNL1       -0.3308
     12 O          21.5871   70.2957    0.9904 O.3     1  UNL1       -0.3794
     13 H          21.8515   71.3091    3.5460 H       1  UNL1        0.2106
     14 H          21.1049   70.0918    1.8030 H       1  UNL1        0.2105
     15 N          25.1333   73.0241    2.0023 N.ar    1  UNL1       -0.2551
     16 C          25.0018   74.3481    1.8062 C.ar    1  UNL1        0.3323
     17 N          25.8326   75.2229    2.4035 N.ar    1  UNL1       -0.2743
     18 C          26.8149   74.7806    3.2146 C.ar    1  UNL1        0.2626
     19 C          26.9643   73.3895    3.4308 C.ar    1  UNL1        0.0795
     20 C          26.1145   72.5355    2.8225 C.ar    1  UNL1        0.0869
     21 O          24.1204   74.7612    1.0776 O.2     1  UNL1       -0.2464
     22 O          27.5673   75.5713    3.7561 O.2     1  UNL1       -0.2670
     23 H          25.7245   76.1742    2.2503 H       1  UNL1        0.1734
     24 O          21.5775   72.5770   -4.4287 O.3     1  UNL1       -0.2703
     25 P          20.8425   72.8248   -5.8399 P.3     1  UNL1        0.2208
     26 O          20.6456   74.4064   -6.0714 O.3     1  UNL1       -0.4371
     27 O          21.6694   72.2662   -6.9319 O.2     1  UNL1       -0.5170
     28 O          19.4046   72.1003   -5.8304 O.3     1  UNL1       -0.2865
     29 C          19.2485   70.6801   -5.8253 C.3     1  UNL1        0.2611
     30 C          18.0708   70.2920   -6.7227 C.3     1  UNL1        0.1582
     31 C          16.7855   70.9032   -6.1563 C.3     1  UNL1        0.1625
     32 C          16.5982   70.4254   -4.7138 C.3     1  UNL1        0.1686
     33 C          17.8330   70.8085   -3.8937 C.3     1  UNL1        0.1760
     34 O          15.6699   70.4854   -6.9464 O.3     1  UNL1       -0.3801
     35 O          16.4353   69.0060   -4.6981 O.3     1  UNL1       -0.3794
     36 O          18.9968   70.2338   -4.4913 O.3     1  UNL1       -0.3263
     37 H          14.8210   70.8368   -6.6445 H       1  UNL1        0.2105
     38 H          16.3122   68.6333   -3.8138 H       1  UNL1        0.2105
     39 C          19.0261   70.0805   -8.9543 C.2     1  UNL1        0.2231
     40 C          19.2614   70.6028  -10.3473 C.3     1  UNL1        0.0946
     41 N          18.2994   70.8009   -8.0774 N.am    1  UNL1       -0.2994
     42 O          19.4911   69.0105   -8.6209 O.2     1  UNL1       -0.2751
     43 H          17.9283   71.6568   -8.3432 H       1  UNL1        0.1496
     44 C          17.6798   70.2821   -2.4654 C.3     1  UNL1        0.1693
     45 O          18.1824   68.9463   -2.3928 O.3     1  UNL1       -0.3794
     46 H          18.1170   68.5481   -1.5141 H       1  UNL1        0.2105
@<TRIPOS>BOND
     1    29    30    1
     2    30    41    1
     3    30    31    1
     4    31    34    1
     5    31    32    1
     6    32    35    1
     7    32    33    1
     8    33    36    1
     9    33    44    1
    10    39    40    1
    11    39    42    2
    12    39    41   am
    13    41    43    1
    14    29    28    1
    15    34    37    1
    16    35    38    1
    17    29    36    1
    18    44    45    1
    19    45    46    1
    20    15     6    1
    21    15    16   ar
    22    16    21    2
    23    16    17   ar
    24    17    23    1
    25    17    18   ar
    26    18    19   ar
    27    19    20   ar
    28    15    20   ar
    29    18    22    2
    30     6     7    1
    31     6    11    1
    32     7     9    1
    33     7     8    1
    34     8    13    1
    35     9    10    1
    36     9    12    1
    37    10     5    1
    38    10    11    1
    39    12    14    1
    40     5     4    1
    41     4     1    1
    42     1     2    1
    43     1    24    1
    44     1     3    2
    45    24    25    1
    46    28    25    1
    47    25    26    1
    48    25    27    2
@<TRIPOS>MOLECULE
UD2
 46 48 0 0 0
SMALL
GASTEIGER

@<TRIPOS>ATOM
      1 P          21.7750   72.2552   -6.0485 P.3     1  UNL1        0.2189
      2 O          23.1947   72.8631   -6.5027 O.3     1  UNL1       -0.4371
      3 O          20.7488   73.3204   -6.0796 O.2     1  UNL1       -0.5170
      4 O          21.3512   71.0720   -7.0556 O.3     1  UNL1       -0.3112
      5 C          20.5632   71.2934   -8.2267 C.3     1  UNL1        0.1811
      6 C          17.4265   70.0938   -6.9388 C.3     1  UNL1        0.2383
      7 C          17.0323   71.1107   -8.0400 C.3     1  UNL1        0.1895
      8 O          15.7949   70.7441   -8.6535 O.3     1  UNL1       -0.3779
      9 C          18.2060   70.9774   -9.0410 C.3     1  UNL1        0.1713
     10 C          19.3462   70.3652   -8.2051 C.3     1  UNL1        0.1764
     11 O          18.8625   70.2248   -6.8598 O.3     1  UNL1       -0.3308
     12 O          17.8490   70.1057  -10.1151 O.3     1  UNL1       -0.3794
     13 H          15.5056   71.3503   -9.3488 H       1  UNL1        0.2106
     14 H          17.0975   70.4135  -10.6394 H       1  UNL1        0.2105
     15 N          16.8045   70.4498   -5.6615 N.ar    1  UNL1       -0.2551
     16 C          16.4296   69.4791   -4.8094 C.ar    1  UNL1        0.3323
     17 N          15.8555   69.7773   -3.6288 N.ar    1  UNL1       -0.2743
     18 C          15.6484   71.0635   -3.2804 C.ar    1  UNL1        0.2626
     19 C          16.0392   72.0954   -4.1673 C.ar    1  UNL1        0.0795
     20 C          16.6163   71.7677   -5.3425 C.ar    1  UNL1        0.0869
     21 O          16.6103   68.3150   -5.1104 O.2     1  UNL1       -0.2464
     22 O          15.1293   71.3347   -2.2120 O.2     1  UNL1       -0.2670
     23 H          15.5900   69.0651   -3.0268 H       1  UNL1        0.1734
     24 O          21.8955   71.6689   -4.5535 O.3     1  UNL1       -0.2703
     25 P          22.7286   72.1039   -3.2459 P.3     1  UNL1        0.2208
     26 O          22.3541   71.1266   -2.0219 O.3     1  UNL1       -0.4371
     27 O          24.1774   72.0064   -3.5287 O.2     1  UNL1       -0.5170
     28 O          22.3588   73.6213   -2.8543 O.3     1  UNL1       -0.2865
     29 C          21.8009   73.9851   -1.5902 C.3     1  UNL1        0.2611
     30 C          21.5525   72.7241   -0.7591 C.3     1  UNL1        0.1582
     31 C          20.5309   71.8401   -1.4812 C.3     1  UNL1        0.1625
     32 C          19.2489   72.6447   -1.7127 C.3     1  UNL1        0.1686
     33 C          19.5863   73.9090   -2.5074 C.3     1  UNL1        0.1760
     34 O          20.2377   70.6952   -0.6772 O.3     1  UNL1       -0.3801
     35 O          18.6796   73.0087   -0.4539 O.3     1  UNL1       -0.3794
     36 O          20.5638   74.6705   -1.7955 O.3     1  UNL1       -0.3263
     37 H          19.5967   70.0898   -1.0745 H       1  UNL1        0.2105
     38 H          17.8629   73.5225   -0.5247 H       1  UNL1        0.2105
     39 C          23.1812   71.5479    0.6198 C.2     1  UNL1        0.2231
     40 C          24.4731   70.7915    0.7861 C.3     1  UNL1        0.0946
     41 N          22.8093   71.9886   -0.5982 N.am    1  UNL1       -0.2994
     42 O          22.4745   71.7609    1.5829 O.2     1  UNL1       -0.2751
     43 H          23.3745   71.8195   -1.3682 H       1  UNL1        0.1496
     44 C          18.3205   74.7483   -2.6914 C.3     1  UNL1        0.1693
     45 O          18.1654   75.6286   -1.5763 O.3     1  UNL1       -0.3794
     46 H          17.3814   76.1925   -1.6257 H       1  UNL1        0.2105
@<TRIPOS>BOND
     1    29    30    1
     2    30    41    1
     3    30    31    1
     4    31    34    1
     5    31    32    1
     6    32    35    1
     7    32    33    1
     8    33    36    1
     9    33    44    1
    10    39    40    1
    11    39    42    2
    12    39    41   am
    13    41    43    1
    14    29    28    1
    15    34    37    1
    16    35    38    1
    17    29    36    1
    18    44    45    1
    19    45    46    1
    20    15     6    1
    21    15    16   ar
    22    16    21    2
    23    16    17   ar
    24    17    23    1
    25    17    18   ar
    26    18    19   ar
    27    19    20   ar
    28    15    20   ar
    29    18    22    2
    30     6     7    1
    31     6    11    1
    32     7     9    1
    33     7     8    1
    34     8    13    1
    35     9    10    1
    36     9    12    1
    37    10     5    1
    38    10    11    1
    39    12    14    1
    40     5     4    1
    41     4     1    1
    42     1     2    1
    43     1    24    1
    44     1     3    2
    45    24    25    1
    46    28    25    1
    47    25    26    1
    48    25    27    2
@<TRIPOS>MOLECULE
UD2
 46 48 0 0 0
SMALL
GASTEIGER

@<TRIPOS>ATOM
      1 P          22.3615   74.2505   -4.4051 P.3     1  UNL1        0.2189
      2 O          21.6221   75.4145   -5.2357 O.3     1  UNL1       -0.4371
      3 O          23.8159   74.3013   -4.6714 O.2     1  UNL1       -0.5170
      4 O          22.0962   74.4632   -2.8309 O.3     1  UNL1       -0.3112
      5 C          21.1139   73.7252   -2.1016 C.3     1  UNL1        0.1811
      6 C          23.1536   71.6388    0.0015 C.3     1  UNL1        0.2383
      7 C          21.7495   71.5982    0.6564 C.3     1  UNL1        0.1895
      8 O          21.5273   70.3467    1.3093 O.3     1  UNL1       -0.3779
      9 C          20.8148   71.7562   -0.5678 C.3     1  UNL1        0.1713
     10 C          21.7121   72.3916   -1.6470 C.3     1  UNL1        0.1764
     11 O          23.0026   72.6111   -1.0556 O.3     1  UNL1       -0.3308
     12 O          20.3389   70.4804   -1.0000 O.3     1  UNL1       -0.3794
     13 H          20.6624   70.2730    1.7350 H       1  UNL1        0.2106
     14 H          19.8167   70.0093   -0.3368 H       1  UNL1        0.2105
     15 N          24.1613   72.0799    0.9685 N.ar    1  UNL1       -0.2551
     16 C          24.8500   71.1670    1.6764 C.ar    1  UNL1        0.3323
     17 N          25.7818   71.5438    2.5720 N.ar    1  UNL1       -0.2743
     18 C          26.0409   72.8520    2.7722 C.ar    1  UNL1        0.2626
     19 C          25.3241   73.8236    2.0332 C.ar    1  UNL1        0.0795
     20 C          24.3986   73.4173    1.1388 C.ar    1  UNL1        0.0869
     21 O          24.6270   69.9839    1.5061 O.2     1  UNL1       -0.2464
     22 O          26.8843   73.1944    3.5822 O.2     1  UNL1       -0.2670
     23 H          26.2684   70.8726    3.0749 H       1  UNL1        0.1734
     24 O          21.7824   72.8174   -4.8573 O.3     1  UNL1       -0.2703
     25 P          20.6981   72.3440   -5.9496 P.3     1  UNL1        0.2208
     26 O          20.1174   73.6324   -6.7219 O.3     1  UNL1       -0.4371
     27 O          21.3423   71.4351   -6.9228 O.2     1  UNL1       -0.5170
     28 O          19.4933   71.5728   -5.2103 O.3     1  UNL1       -0.2865
     29 C          19.1506   70.2144   -5.4904 C.3     1  UNL1        0.2611
     30 C          17.9999   70.1750   -6.4989 C.3     1  UNL1        0.1582
     31 C          16.7693   70.8476   -5.8828 C.3     1  UNL1        0.1625
     32 C          16.4166   70.1397   -4.5718 C.3     1  UNL1        0.1686
     33 C          17.6286   70.1805   -3.6373 C.3     1  UNL1        0.1760
     34 O          15.6683   70.7503   -6.7893 O.3     1  UNL1       -0.3801
     35 O          16.0665   68.7811   -4.8417 O.3     1  UNL1       -0.3794
     36 O          18.7463   69.5667   -4.2824 O.3     1  UNL1       -0.3263
     37 H          14.8538   71.1572   -6.4633 H       1  UNL1        0.2105
     38 H          15.8315   68.2708   -4.0540 H       1  UNL1        0.2105
     39 C          18.8063   70.2030   -8.7982 C.2     1  UNL1        0.2231
     40 C          19.2085   70.9379  -10.0499 C.3     1  UNL1        0.0946
     41 N          18.3912   70.8906   -7.7160 N.am    1  UNL1       -0.2994
     42 O          18.8559   68.9912   -8.7636 O.2     1  UNL1       -0.2751
     43 H          18.3523   71.8595   -7.7429 H       1  UNL1        0.1496
     44 C          17.3042   69.4233   -2.3482 C.3     1  UNL1        0.1693
     45 O          15.8890   69.2605   -2.2338 O.3     1  UNL1       -0.3794
     46 H          15.6100   68.7876   -1.4379 H       1  UNL1        0.2105
@<TRIPOS>BOND
     1    29    30    1
     2    30    41    1
     3    30    31    1
     4    31    34    1
     5    31    32    1
     6    32    35    1
     7    32    33    1
     8    33    36    1
     9    33    44    1
    10    39    40    1
    11    39    42    2
    12    39    41   am
    13    41    43    1
    14    29    28    1
    15    34    37    1
    16    35    38    1
    17    29    36    1
    18    44    45    1
    19    45    46    1
    20    15     6    1
    21    15    16   ar
    22    16    21    2
    23    16    17   ar
    24    17    23    1
    25    17    18   ar
    26    18    19   ar
    27    19    20   ar
    28    15    20   ar
    29    18    22    2
    30     6     7    1
    31     6    11    1
    32     7     9    1
    33     7     8    1
    34     8    13    1
    35     9    10    1
    36     9    12    1
    37    10     5    1
    38    10    11    1
    39    12    14    1
    40     5     4    1
    41     4     1    1
    42     1     2    1
    43     1    24    1
    44     1     3    2
    45    24    25    1
    46    28    25    1
    47    25    26    1
    48    25    27    2
@<TRIPOS>MOLECULE
UD2
 46 48 0 0 0
SMALL
GASTEIGER

@<TRIPOS>ATOM
      1 P          16.7703   69.3791   -2.5739 P.3     1  UNL1        0.2189
      2 O          17.8090   68.2452   -3.0500 O.3     1  UNL1       -0.4371
      3 O          15.9815   69.8454   -3.7355 O.2     1  UNL1       -0.5170
      4 O          15.7785   68.7657   -1.4631 O.3     1  UNL1       -0.3112
      5 C          14.8371   69.5596   -0.7386 C.3     1  UNL1        0.1811
      6 C          12.1812   67.6434    0.7485 C.3     1  UNL1        0.2383
      7 C          11.7816   69.1204    0.9953 C.3     1  UNL1        0.1895
      8 O          10.3604   69.2669    1.0203 O.3     1  UNL1       -0.3779
      9 C          12.3886   69.8321   -0.2385 C.3     1  UNL1        0.1713
     10 C          13.4754   68.8605   -0.7369 C.3     1  UNL1        0.1764
     11 O          13.4997   67.7452    0.1681 O.3     1  UNL1       -0.3308
     12 O          11.3917   70.0261   -1.2431 O.3     1  UNL1       -0.3794
     13 H          10.0608   70.1734    1.1724 H       1  UNL1        0.2106
     14 H          10.6527   70.5828   -0.9628 H       1  UNL1        0.2105
     15 N          12.2289   66.9039    2.0118 N.ar    1  UNL1       -0.2551
     16 C          13.4122   66.6890    2.6139 C.ar    1  UNL1        0.3323
     17 N          13.4857   66.0124    3.7754 N.ar    1  UNL1       -0.2743
     18 C          12.3651   65.5386    4.3570 C.ar    1  UNL1        0.2626
     19 C          11.1127   65.7585    3.7347 C.ar    1  UNL1        0.0795
     20 C          11.0681   66.4437    2.5728 C.ar    1  UNL1        0.0869
     21 O          14.4308   67.1106    2.1010 O.2     1  UNL1       -0.2464
     22 O          12.4303   64.9264    5.4084 O.2     1  UNL1       -0.2670
     23 H          14.3471   65.8652    4.1955 H       1  UNL1        0.1734
     24 O          17.5809   70.6190   -1.9426 O.3     1  UNL1       -0.2703
     25 P          18.9256   71.4024   -2.3563 P.3     1  UNL1        0.2208
     26 O          19.0337   72.7671   -1.5079 O.3     1  UNL1       -0.4371
     27 O          20.1008   70.5505   -2.0709 O.2     1  UNL1       -0.5170
     28 O          18.8825   71.7491   -3.9281 O.3     1  UNL1       -0.2865
     29 C          19.6650   71.0537   -4.9004 C.3     1  UNL1        0.2611
     30 C          20.4981   72.0584   -5.6998 C.3     1  UNL1        0.1582
     31 C          19.5573   73.0056   -6.4510 C.3     1  UNL1        0.1625
     32 C          18.6273   72.1810   -7.3452 C.3     1  UNL1        0.1686
     33 C          17.8661   71.1713   -6.4821 C.3     1  UNL1        0.1760
     34 O          20.3258   73.9008   -7.2580 O.3     1  UNL1       -0.3801
     35 O          19.4000   71.4856   -8.3254 O.3     1  UNL1       -0.3794
     36 O          18.7994   70.3418   -5.7872 O.3     1  UNL1       -0.3263
     37 H          19.7931   74.5310   -7.7622 H       1  UNL1        0.2105
     38 H          18.8742   70.9409   -8.9277 H       1  UNL1        0.2105
     39 C          22.6642   72.9463   -5.0237 C.2     1  UNL1        0.2231
     40 C          23.5334   73.7404   -4.0843 C.3     1  UNL1        0.0946
     41 N          21.3429   72.8309   -4.7854 N.am    1  UNL1       -0.2994
     42 O          23.1536   72.4099   -5.9958 O.2     1  UNL1       -0.2751
     43 H          20.9514   73.2588   -4.0078 H       1  UNL1        0.1496
     44 C          16.9788   70.3030   -7.3761 C.3     1  UNL1        0.1693
     45 O          15.8550   69.8381   -6.6256 O.3     1  UNL1       -0.3794
     46 H          15.2478   69.2800   -7.1305 H       1  UNL1        0.2105
@<TRIPOS>BOND
     1    29    30    1
     2    30    41    1
     3    30    31    1
     4    31    34    1
     5    31    32    1
     6    32    35    1
     7    32    33    1
     8    33    36    1
     9    33    44    1
    10    39    40    1
    11    39    42    2
    12    39    41   am
    13    41    43    1
    14    29    28    1
    15    34    37    1
    16    35    38    1
    17    29    36    1
    18    44    45    1
    19    45    46    1
    20    15     6    1
    21    15    16   ar
    22    16    21    2
    23    16    17   ar
    24    17    23    1
    25    17    18   ar
    26    18    19   ar
    27    19    20   ar
    28    15    20   ar
    29    18    22    2
    30     6     7    1
    31     6    11    1
    32     7     9    1
    33     7     8    1
    34     8    13    1
    35     9    10    1
    36     9    12    1
    37    10     5    1
    38    10    11    1
    39    12    14    1
    40     5     4    1
    41     4     1    1
    42     1     2    1
    43     1    24    1
    44     1     3    2
    45    24    25    1
    46    28    25    1
    47    25    26    1
    48    25    27    2
@<TRIPOS>MOLECULE
UD2
 46 48 0 0 0
SMALL
GASTEIGER

@<TRIPOS>ATOM
      1 P          16.4247   69.6676   -3.5080 P.3     1  UNL1        0.2189
      2 O          16.1598   68.6702   -4.7434 O.3     1  UNL1       -0.4371
      3 O          15.8624   71.0002   -3.8196 O.2     1  UNL1       -0.5170
      4 O          15.7172   69.0825   -2.1848 O.3     1  UNL1       -0.3112
      5 C          15.0399   69.9084   -1.2359 C.3     1  UNL1        0.1811
      6 C          12.5100   68.2199    0.6839 C.3     1  UNL1        0.2383
      7 C          12.3294   69.7188    1.0341 C.3     1  UNL1        0.1895
      8 O          10.9627   70.0123    1.3304 O.3     1  UNL1       -0.3779
      9 C          12.7723   70.4147   -0.2763 C.3     1  UNL1        0.1713
     10 C          13.6331   69.3565   -0.9922 C.3     1  UNL1        0.1764
     11 O          13.7010   68.2074   -0.1329 O.3     1  UNL1       -0.3308
     12 O          11.6341   70.7546   -1.0699 O.3     1  UNL1       -0.3794
     13 H          10.7990   70.9380    1.5563 H       1  UNL1        0.2106
     14 H          11.0264   71.3732   -0.6428 H       1  UNL1        0.2105
     15 N          12.7088   67.4266    1.8988 N.ar    1  UNL1       -0.2551
     16 C          12.1332   66.2158    2.0057 C.ar    1  UNL1        0.3323
     17 N          12.2987   65.4651    3.1109 N.ar    1  UNL1       -0.2743
     18 C          13.0513   65.9195    4.1335 C.ar    1  UNL1        0.2626
     19 C          13.6639   67.1919    4.0340 C.ar    1  UNL1        0.0795
     20 C          13.4844   67.9212    2.9127 C.ar    1  UNL1        0.0869
     21 O          11.4521   65.7933    1.0914 O.2     1  UNL1       -0.2464
     22 O          13.2022   65.2409    5.1342 O.2     1  UNL1       -0.2670
     23 H          11.8756   64.5948    3.1721 H       1  UNL1        0.1734
     24 O          18.0096   69.7994   -3.2546 O.3     1  UNL1       -0.2703
     25 P          18.9615   70.9826   -2.7190 P.3     1  UNL1        0.2208
     26 O          18.0561   72.1518   -2.0810 O.3     1  UNL1       -0.4371
     27 O          19.8776   70.4501   -1.6869 O.2     1  UNL1       -0.5170
     28 O          19.8203   71.5767   -3.9447 O.3     1  UNL1       -0.2865
     29 C          20.9340   70.8908   -4.5195 C.3     1  UNL1        0.2611
     30 C          22.2093   71.7059   -4.2920 C.3     1  UNL1        0.1582
     31 C          22.0762   73.0555   -5.0043 C.3     1  UNL1        0.1625
     32 C          21.8008   72.8111   -6.4906 C.3     1  UNL1        0.1686
     33 C          20.5409   71.9532   -6.6333 C.3     1  UNL1        0.1760
     34 O          23.2915   73.7938   -4.8588 O.3     1  UNL1       -0.3801
     35 O          22.9118   72.1303   -7.0765 O.3     1  UNL1       -0.3794
     36 O          20.7190   70.7263   -5.9227 O.3     1  UNL1       -0.3263
     37 H          23.2778   74.6613   -5.2859 H       1  UNL1        0.2105
     38 H          22.8056   71.9416   -8.0195 H       1  UNL1        0.2105
     39 C          23.4698   71.4006   -2.2291 C.2     1  UNL1        0.2231
     40 C          23.6659   71.6274   -0.7530 C.3     1  UNL1        0.0946
     41 N          22.3993   71.9268   -2.8561 N.am    1  UNL1       -0.2994
     42 O          24.2758   70.7437   -2.8544 O.2     1  UNL1       -0.2751
     43 H          21.7541   72.4511   -2.3564 H       1  UNL1        0.1496
     44 C          20.2925   71.6545   -8.1130 C.3     1  UNL1        0.1693
     45 O          18.9129   71.8691   -8.4180 O.3     1  UNL1       -0.3794
     46 H          18.6824   71.6984   -9.3414 H       1  UNL1        0.2105
@<TRIPOS>BOND
     1    29    30    1
     2    30    41    1
     3    30    31    1
     4    31    34    1
     5    31    32    1
     6    32    35    1
     7    32    33    1
     8    33    36    1
     9    33    44    1
    10    39    40    1
    11    39    42    2
    12    39    41   am
    13    41    43    1
    14    29    28    1
    15    34    37    1
    16    35    38    1
    17    29    36    1
    18    44    45    1
    19    45    46    1
    20    15     6    1
    21    15    16   ar
    22    16    21    2
    23    16    17   ar
    24    17    23    1
    25    17    18   ar
    26    18    19   ar
    27    19    20   ar
    28    15    20   ar
    29    18    22    2
    30     6     7    1
    31     6    11    1
    32     7     9    1
    33     7     8    1
    34     8    13    1
    35     9    10    1
    36     9    12    1
    37    10     5    1
    38    10    11    1
    39    12    14    1
    40     5     4    1
    41     4     1    1
    42     1     2    1
    43     1    24    1
    44     1     3    2
    45    24    25    1
    46    28    25    1
    47    25    26    1
    48    25    27    2
@<TRIPOS>MOLECULE
UD2
 46 48 0 0 0
SMALL
GASTEIGER

@<TRIPOS>ATOM
      1 P          20.6173   71.3173   -3.3942 P.3     1  UNL1        0.2189
      2 O          21.1259   70.9209   -4.8692 O.3     1  UNL1       -0.4371
      3 O          20.2785   72.7571   -3.3589 O.2     1  UNL1       -0.5170
      4 O          19.3117   70.4495   -3.0256 O.3     1  UNL1       -0.3112
      5 C          18.1277   71.0246   -2.4699 C.3     1  UNL1        0.1811
      6 C          16.7297   70.5513   -5.7498 C.3     1  UNL1        0.2383
      7 C          16.7783   69.1282   -5.1378 C.3     1  UNL1        0.1895
      8 O          15.7155   68.3185   -5.6445 O.3     1  UNL1       -0.3779
      9 C          16.5824   69.4160   -3.6291 C.3     1  UNL1        0.1713
     10 C          16.9792   70.8965   -3.4737 C.3     1  UNL1        0.1764
     11 O          17.4037   71.3635   -4.7641 O.3     1  UNL1       -0.3308
     12 O          15.2167   69.2222   -3.2575 O.3     1  UNL1       -0.3794
     13 H          15.7037   67.4185   -5.2916 H       1  UNL1        0.2106
     14 H          14.8962   68.3200   -3.3909 H       1  UNL1        0.2105
     15 N          17.4461   70.5884   -7.0267 N.ar    1  UNL1       -0.2551
     16 C          16.7568   70.5242   -8.1797 C.ar    1  UNL1        0.3323
     17 N          17.3892   70.5560   -9.3677 N.ar    1  UNL1       -0.2743
     18 C          18.7331   70.6553   -9.4187 C.ar    1  UNL1        0.2626
     19 C          19.4713   70.7247   -8.2127 C.ar    1  UNL1        0.0795
     20 C          18.8109   70.6950   -7.0361 C.ar    1  UNL1        0.0869
     21 O          15.5446   70.4347   -8.1489 O.2     1  UNL1       -0.2464
     22 O          19.3067   70.6846  -10.4933 O.2     1  UNL1       -0.2670
     23 H          16.8770   70.5076  -10.1895 H       1  UNL1        0.1734
     24 O          21.7823   71.0134   -2.3248 O.3     1  UNL1       -0.2703
     25 P          23.2860   71.5540   -2.1259 P.3     1  UNL1        0.2208
     26 O          23.6739   71.4976   -0.5638 O.3     1  UNL1       -0.4371
     27 O          24.2214   70.7060   -2.8967 O.2     1  UNL1       -0.5170
     28 O          23.3834   73.0738   -2.6488 O.3     1  UNL1       -0.2865
     29 C          24.3938   73.5224   -3.5538 C.3     1  UNL1        0.2611
     30 C          24.6018   75.0290   -3.3818 C.3     1  UNL1        0.1582
     31 C          23.3026   75.7589   -3.7364 C.3     1  UNL1        0.1625
     32 C          22.8952   75.3885   -5.1651 C.3     1  UNL1        0.1686
     33 C          22.7529   73.8677   -5.2684 C.3     1  UNL1        0.1760
     34 O          23.5092   77.1706   -3.6494 O.3     1  UNL1       -0.3801
     35 O          23.8970   75.8382   -6.0792 O.3     1  UNL1       -0.3794
     36 O          23.9861   73.2491   -4.8959 O.3     1  UNL1       -0.3263
     37 H          22.7255   77.6962   -3.8607 H       1  UNL1        0.2105
     38 H          23.7044   75.6361   -7.0055 H       1  UNL1        0.2105
     39 C          23.9990   75.5895   -1.0883 C.2     1  UNL1        0.2231
     40 C          24.3681   75.8861    0.3415 C.3     1  UNL1        0.0946
     41 N          24.9617   75.3177   -1.9912 N.am    1  UNL1       -0.2994
     42 O          22.8341   75.5953   -1.4279 O.2     1  UNL1       -0.2751
     43 H          25.8932   75.3139   -1.7203 H       1  UNL1        0.1496
     44 C          22.4043   73.4849   -6.7080 C.3     1  UNL1        0.1693
     45 O          22.9804   72.2140   -7.0166 O.3     1  UNL1       -0.3794
     46 H          22.7997   71.9075   -7.9157 H       1  UNL1        0.2105
@<TRIPOS>BOND
     1    29    30    1
     2    30    41    1
     3    30    31    1
     4    31    34    1
     5    31    32    1
     6    32    35    1
     7    32    33    1
     8    33    36    1
     9    33    44    1
    10    39    40    1
    11    39    42    2
    12    39    41   am
    13    41    43    1
    14    29    28    1
    15    34    37    1
    16    35    38    1
    17    29    36    1
    18    44    45    1
    19    45    46    1
    20    15     6    1
    21    15    16   ar
    22    16    21    2
    23    16    17   ar
    24    17    23    1
    25    17    18   ar
    26    18    19   ar
    27    19    20   ar
    28    15    20   ar
    29    18    22    2
    30     6     7    1
    31     6    11    1
    32     7     9    1
    33     7     8    1
    34     8    13    1
    35     9    10    1
    36     9    12    1
    37    10     5    1
    38    10    11    1
    39    12    14    1
    40     5     4    1
    41     4     1    1
    42     1     2    1
    43     1    24    1
    44     1     3    2
    45    24    25    1
    46    28    25    1
    47    25    26    1
    48    25    27    2
@<TRIPOS>MOLECULE
UD2
 46 48 0 0 0
SMALL
GASTEIGER

@<TRIPOS>ATOM
      1 P          21.7385   73.3584   -6.6600 P.3     1  UNL1        0.2189
      2 O          23.1529   72.7984   -7.1867 O.3     1  UNL1       -0.4371
      3 O          21.4882   74.6947   -7.2435 O.2     1  UNL1       -0.5170
      4 O          20.5635   72.3503   -7.1035 O.3     1  UNL1       -0.3112
      5 C          20.6640   71.4924   -8.2417 C.3     1  UNL1        0.1811
      6 C          17.5712   70.1366   -7.0038 C.3     1  UNL1        0.2383
      7 C          17.1434   71.1461   -8.0992 C.3     1  UNL1        0.1895
      8 O          15.9313   70.7299   -8.7312 O.3     1  UNL1       -0.3779
      9 C          18.3334   71.0776   -9.0874 C.3     1  UNL1        0.1713
     10 C          19.4908   70.5094   -8.2442 C.3     1  UNL1        0.1764
     11 O          18.9987   70.3323   -6.9063 O.3     1  UNL1       -0.3308
     12 O          18.0293   70.2021  -10.1745 O.3     1  UNL1       -0.3794
     13 H          15.6225   71.3296   -9.4237 H       1  UNL1        0.2106
     14 H          17.2705   70.4808  -10.7046 H       1  UNL1        0.2105
     15 N          16.9189   70.4499   -5.7305 N.ar    1  UNL1       -0.2551
     16 C          16.4909   69.4514   -4.9376 C.ar    1  UNL1        0.3323
     17 N          15.8879   69.7101   -3.7621 N.ar    1  UNL1       -0.2743
     18 C          15.7048   70.9840   -3.3591 C.ar    1  UNL1        0.2626
     19 C          16.1513   72.0448   -4.1834 C.ar    1  UNL1        0.0795
     20 C          16.7564   71.7562   -5.3548 C.ar    1  UNL1        0.0869
     21 O          16.6495   68.2980   -5.2882 O.2     1  UNL1       -0.2464
     22 O          15.1596   71.2195   -2.2953 O.2     1  UNL1       -0.2670
     23 H          15.5843   68.9784   -3.2031 H       1  UNL1        0.1734
     24 O          21.7701   73.4711   -5.0539 O.3     1  UNL1       -0.2703
     25 P          22.9461   73.6520   -3.9689 P.3     1  UNL1        0.2208
     26 O          24.1308   72.6071   -4.2829 O.3     1  UNL1       -0.4371
     27 O          23.4747   75.0318   -4.0393 O.2     1  UNL1       -0.5170
     28 O          22.3626   73.3749   -2.4939 O.3     1  UNL1       -0.2865
     29 C          20.9642   73.2956   -2.2122 C.3     1  UNL1        0.2611
     30 C          20.7580   72.7551   -0.7952 C.3     1  UNL1        0.1582
     31 C          21.3307   71.3368   -0.7107 C.3     1  UNL1        0.1625
     32 C          20.6555   70.4613   -1.7699 C.3     1  UNL1        0.1686
     33 C          20.8658   71.0904   -3.1497 C.3     1  UNL1        0.1760
     34 O          21.0770   70.7964    0.5881 O.3     1  UNL1       -0.3801
     35 O          19.2566   70.3708   -1.4938 O.3     1  UNL1       -0.3794
     36 O          20.3386   72.4186   -3.1512 O.3     1  UNL1       -0.3263
     37 H          21.4140   69.8986    0.7127 H       1  UNL1        0.2105
     38 H          18.7642   69.8301   -2.1273 H       1  UNL1        0.2105
     39 C          20.7602   74.2031    1.1646 C.2     1  UNL1        0.2231
     40 C          21.4702   75.0925    2.1513 C.3     1  UNL1        0.0946
     41 N          21.4494   73.6202    0.1640 N.am    1  UNL1       -0.2994
     42 O          19.5668   74.0110    1.2704 O.2     1  UNL1       -0.2751
     43 H          22.4033   73.7744    0.0785 H       1  UNL1        0.1496
     44 C          20.1433   70.2534   -4.2071 C.3     1  UNL1        0.1693
     45 O          20.3303   68.8648   -3.9258 O.3     1  UNL1       -0.3794
     46 H          19.8986   68.2734   -4.5574 H       1  UNL1        0.2105
@<TRIPOS>BOND
     1    29    30    1
     2    30    41    1
     3    30    31    1
     4    31    34    1
     5    31    32    1
     6    32    35    1
     7    32    33    1
     8    33    36    1
     9    33    44    1
    10    39    40    1
    11    39    42    2
    12    39    41   am
    13    41    43    1
    14    29    28    1
    15    34    37    1
    16    35    38    1
    17    29    36    1
    18    44    45    1
    19    45    46    1
    20    15     6    1
    21    15    16   ar
    22    16    21    2
    23    16    17   ar
    24    17    23    1
    25    17    18   ar
    26    18    19   ar
    27    19    20   ar
    28    15    20   ar
    29    18    22    2
    30     6     7    1
    31     6    11    1
    32     7     9    1
    33     7     8    1
    34     8    13    1
    35     9    10    1
    36     9    12    1
    37    10     5    1
    38    10    11    1
    39    12    14    1
    40     5     4    1
    41     4     1    1
    42     1     2    1
    43     1    24    1
    44     1     3    2
    45    24    25    1
    46    28    25    1
    47    25    26    1
    48    25    27    2
@<TRIPOS>MOLECULE
UD2
 46 48 0 0 0
SMALL
GASTEIGER

@<TRIPOS>ATOM
      1 P          22.2848   73.1316   -4.0613 P.3     1  UNL1        0.2189
      2 O          23.8014   72.8086   -4.4937 O.3     1  UNL1       -0.4371
      3 O          21.5757   71.8673   -3.7650 O.2     1  UNL1       -0.5170
      4 O          22.2883   74.0653   -2.7491 O.3     1  UNL1       -0.3112
      5 C          21.8809   73.5981   -1.4618 C.3     1  UNL1        0.1811
      6 C          23.6883   72.6828    1.5101 C.3     1  UNL1        0.2383
      7 C          23.0490   71.3588    1.0194 C.3     1  UNL1        0.1895
      8 O          23.8661   70.2389    1.3656 O.3     1  UNL1       -0.3779
      9 C          23.0139   71.5637   -0.5149 C.3     1  UNL1        0.1713
     10 C          23.1036   73.0913   -0.6930 C.3     1  UNL1        0.1764
     11 O          23.1318   73.6742    0.6196 O.3     1  UNL1       -0.3308
     12 O          24.1321   70.9215   -1.1297 O.3     1  UNL1       -0.3794
     13 H          23.5081   69.3874    1.0805 H       1  UNL1        0.2106
     14 H          24.1579   69.9641   -0.9985 H       1  UNL1        0.2105
     15 N          23.3030   72.9591    2.8958 N.ar    1  UNL1       -0.2551
     16 C          22.1421   72.4765    3.3736 C.ar    1  UNL1        0.3323
     17 N          21.7628   72.7150    4.6430 N.ar    1  UNL1       -0.2743
     18 C          22.5484   73.4453    5.4603 C.ar    1  UNL1        0.2626
     19 C          23.7736   73.9586    4.9709 C.ar    1  UNL1        0.0795
     20 C          24.1309   73.7003    3.6952 C.ar    1  UNL1        0.0869
     21 O          21.4238   71.8163    2.6480 O.2     1  UNL1       -0.2464
     22 O          22.2065   73.6616    6.6096 O.2     1  UNL1       -0.2670
     23 H          20.9220   72.3607    4.9711 H       1  UNL1        0.1734
     24 O          21.5356   73.8986   -5.2629 O.3     1  UNL1       -0.2703
     25 P          20.4962   73.4417   -6.4047 P.3     1  UNL1        0.2208
     26 O          19.8474   74.7457   -7.0921 O.3     1  UNL1       -0.4371
     27 O          21.2072   72.6466   -7.4298 O.2     1  UNL1       -0.5170
     28 O          19.3318   72.5475   -5.7436 O.3     1  UNL1       -0.2865
     29 C          18.6380   71.5221   -6.4567 C.3     1  UNL1        0.2611
     30 C          17.1664   71.9133   -6.6117 C.3     1  UNL1        0.1582
     31 C          16.5285   72.0277   -5.2238 C.3     1  UNL1        0.1625
     32 C          16.7009   70.6987   -4.4833 C.3     1  UNL1        0.1686
     33 C          18.1908   70.3543   -4.4102 C.3     1  UNL1        0.1760
     34 O          15.1362   72.3208   -5.3612 O.3     1  UNL1       -0.3801
     35 O          16.0055   69.6669   -5.1856 O.3     1  UNL1       -0.3794
     36 O          18.7294   70.2935   -5.7324 O.3     1  UNL1       -0.3263
     37 H          14.6681   72.4081   -4.5195 H       1  UNL1        0.2105
     38 H          16.0725   68.7948   -4.7722 H       1  UNL1        0.2105
     39 C          16.0713   73.4288   -8.1743 C.2     1  UNL1        0.2231
     40 C          15.9743   74.7540   -8.8836 C.3     1  UNL1        0.0946
     41 N          17.0728   73.2024   -7.3015 N.am    1  UNL1       -0.2994
     42 O          15.2475   72.5641   -8.3886 O.2     1  UNL1       -0.2751
     43 H          17.7322   73.8931   -7.1306 H       1  UNL1        0.1496
     44 C          18.3675   68.9983   -3.7243 C.3     1  UNL1        0.1693
     45 O          17.2881   68.7801   -2.8135 O.3     1  UNL1       -0.3794
     46 H          17.3351   67.9374   -2.3417 H       1  UNL1        0.2105
@<TRIPOS>BOND
     1    29    30    1
     2    30    41    1
     3    30    31    1
     4    31    34    1
     5    31    32    1
     6    32    35    1
     7    32    33    1
     8    33    36    1
     9    33    44    1
    10    39    40    1
    11    39    42    2
    12    39    41   am
    13    41    43    1
    14    29    28    1
    15    34    37    1
    16    35    38    1
    17    29    36    1
    18    44    45    1
    19    45    46    1
    20    15     6    1
    21    15    16   ar
    22    16    21    2
    23    16    17   ar
    24    17    23    1
    25    17    18   ar
    26    18    19   ar
    27    19    20   ar
    28    15    20   ar
    29    18    22    2
    30     6     7    1
    31     6    11    1
    32     7     9    1
    33     7     8    1
    34     8    13    1
    35     9    10    1
    36     9    12    1
    37    10     5    1
    38    10    11    1
    39    12    14    1
    40     5     4    1
    41     4     1    1
    42     1     2    1
    43     1    24    1
    44     1     3    2
    45    24    25    1
    46    28    25    1
    47    25    26    1
    48    25    27    2
@<TRIPOS>MOLECULE
UD2
 46 48 0 0 0
SMALL
GASTEIGER

@<TRIPOS>ATOM
      1 P          20.4695   72.7009   -0.9270 P.3     1  UNL1        0.2189
      2 O          20.3772   71.9192    0.4772 O.3     1  UNL1       -0.4371
      3 O          21.8858   72.8071   -1.3411 O.2     1  UNL1       -0.5170
      4 O          19.6421   71.8915   -2.0469 O.3     1  UNL1       -0.3112
      5 C          18.6915   70.8740   -1.7268 C.3     1  UNL1        0.1811
      6 C          17.1652   70.7016   -4.9791 C.3     1  UNL1        0.2383
      7 C          17.0048   69.2741   -4.3972 C.3     1  UNL1        0.1895
      8 O          15.8180   68.6517   -4.8929 O.3     1  UNL1       -0.3779
      9 C          16.8893   69.5530   -2.8785 C.3     1  UNL1        0.1713
     10 C          17.5154   70.9498   -2.7035 C.3     1  UNL1        0.1764
     11 O          17.9790   71.3757   -3.9947 O.3     1  UNL1       -0.3308
     12 O          15.5186   69.5649   -2.4763 O.3     1  UNL1       -0.3794
     13 H          15.6738   67.7563   -4.5579 H       1  UNL1        0.2106
     14 H          15.0586   68.7268   -2.6196 H       1  UNL1        0.2105
     15 N          17.8505   70.6573   -6.2727 N.ar    1  UNL1       -0.2551
     16 C          17.1539   70.3686   -7.3863 C.ar    1  UNL1        0.3323
     17 N          17.7578   70.3209   -8.5885 N.ar    1  UNL1       -0.2743
     18 C          19.0798   70.5655   -8.6940 C.ar    1  UNL1        0.2626
     19 C          19.8252   70.8717   -7.5301 C.ar    1  UNL1        0.0795
     20 C          19.1930   70.9169   -6.3385 C.ar    1  UNL1        0.0869
     21 O          15.9612   70.1460   -7.3061 O.2     1  UNL1       -0.2464
     22 O          19.6276   70.5230   -9.7815 O.2     1  UNL1       -0.2670
     23 H          17.2409   70.1100   -9.3812 H       1  UNL1        0.1734
     24 O          19.8460   74.1765   -0.7622 O.3     1  UNL1       -0.2703
     25 P          20.3430   75.6522   -1.1723 P.3     1  UNL1        0.2208
     26 O          21.7975   75.5571   -1.8572 O.3     1  UNL1       -0.4371
     27 O          19.3853   76.2471   -2.1302 O.2     1  UNL1       -0.5170
     28 O          20.4287   76.5748    0.1445 O.3     1  UNL1       -0.2865
     29 C          19.2772   77.1314    0.7814 C.3     1  UNL1        0.2611
     30 C          19.3184   76.8159    2.2785 C.3     1  UNL1        0.1582
     31 C          19.2691   75.2973    2.4730 C.3     1  UNL1        0.1625
     32 C          18.0092   74.7476    1.7985 C.3     1  UNL1        0.1686
     33 C          18.0185   75.1430    0.3194 C.3     1  UNL1        0.1760
     34 O          19.2331   74.9960    3.8699 O.3     1  UNL1       -0.3801
     35 O          16.8511   75.2940    2.4322 O.3     1  UNL1       -0.3794
     36 O          18.0964   76.5655    0.2087 O.3     1  UNL1       -0.3263
     37 H          19.2017   74.0498    4.0671 H       1  UNL1        0.2105
     38 H          16.0144   74.9888    2.0544 H       1  UNL1        0.2105
     39 C          20.6102   77.6585    4.1651 C.2     1  UNL1        0.2231
     40 C          21.8836   78.2007    4.7594 C.3     1  UNL1        0.0946
     41 N          20.5573   77.3435    2.8558 N.am    1  UNL1       -0.2994
     42 O          19.6311   77.5050    4.8651 O.2     1  UNL1       -0.2751
     43 H          21.3396   77.4670    2.2956 H       1  UNL1        0.1496
     44 C          16.7339   74.6487   -0.3484 C.3     1  UNL1        0.1693
     45 O          16.4400   73.3252    0.1037 O.3     1  UNL1       -0.3794
     46 H          15.6367   72.9474   -0.2796 H       1  UNL1        0.2105
@<TRIPOS>BOND
     1    29    30    1
     2    30    41    1
     3    30    31    1
     4    31    34    1
     5    31    32    1
     6    32    35    1
     7    32    33    1
     8    33    36    1
     9    33    44    1
    10    39    40    1
    11    39    42    2
    12    39    41   am
    13    41    43    1
    14    29    28    1
    15    34    37    1
    16    35    38    1
    17    29    36    1
    18    44    45    1
    19    45    46    1
    20    15     6    1
    21    15    16   ar
    22    16    21    2
    23    16    17   ar
    24    17    23    1
    25    17    18   ar
    26    18    19   ar
    27    19    20   ar
    28    15    20   ar
    29    18    22    2
    30     6     7    1
    31     6    11    1
    32     7     9    1
    33     7     8    1
    34     8    13    1
    35     9    10    1
    36     9    12    1
    37    10     5    1
    38    10    11    1
    39    12    14    1
    40     5     4    1
    41     4     1    1
    42     1     2    1
    43     1    24    1
    44     1     3    2
    45    24    25    1
    46    28    25    1
    47    25    26    1
    48    25    27    2
@<TRIPOS>MOLECULE
UD2
 46 48 0 0 0
SMALL
GASTEIGER

@<TRIPOS>ATOM
      1 P          21.9279   72.4309   -6.0416 P.3     1  UNL1        0.2189
      2 O          23.1828   73.1888   -6.7066 O.3     1  UNL1       -0.4371
      3 O          20.8403   73.4023   -5.7914 O.2     1  UNL1       -0.5170
      4 O          21.4028   71.2831   -7.0419 O.3     1  UNL1       -0.3112
      5 C          20.5330   71.5506   -8.1434 C.3     1  UNL1        0.1811
      6 C          17.4674   70.1447   -6.8934 C.3     1  UNL1        0.2383
      7 C          17.0198   71.1370   -7.9966 C.3     1  UNL1        0.1895
      8 O          15.8158   70.6923   -8.6247 O.3     1  UNL1       -0.3779
      9 C          18.2106   71.0837   -8.9848 C.3     1  UNL1        0.1713
     10 C          19.3791   70.5449   -8.1376 C.3     1  UNL1        0.1764
     11 O          18.8909   70.3689   -6.7981 O.3     1  UNL1       -0.3308
     12 O          17.9232   70.1939  -10.0648 O.3     1  UNL1       -0.3794
     13 H          15.4952   71.2803   -9.3218 H       1  UNL1        0.2106
     14 H          17.1590   70.4536  -10.5967 H       1  UNL1        0.2105
     15 N          16.8096   70.4553   -5.6223 N.ar    1  UNL1       -0.2551
     16 C          16.4671   69.4577   -4.7879 C.ar    1  UNL1        0.3323
     17 N          15.8613   69.7140   -3.6134 N.ar    1  UNL1       -0.2743
     18 C          15.5888   70.9847   -3.2534 C.ar    1  UNL1        0.2626
     19 C          15.9447   72.0447   -4.1216 C.ar    1  UNL1        0.0795
     20 C          16.5549   71.7589   -5.2910 C.ar    1  UNL1        0.0869
     21 O          16.7068   68.3071   -5.0995 O.2     1  UNL1       -0.2464
     22 O          15.0409   71.2181   -2.1904 O.2     1  UNL1       -0.2670
     23 H          15.6200   68.9828   -3.0241 H       1  UNL1        0.1734
     24 O          22.3813   71.7617   -4.6488 O.3     1  UNL1       -0.2703
     25 P          23.4641   72.1503   -3.5222 P.3     1  UNL1        0.2208
     26 O          24.1737   70.8116   -2.9761 O.3     1  UNL1       -0.4371
     27 O          24.4858   73.0458   -4.1075 O.2     1  UNL1       -0.5170
     28 O          22.7255   72.9016   -2.3045 O.3     1  UNL1       -0.2865
     29 C          21.3815   72.6151   -1.9136 C.3     1  UNL1        0.2611
     30 C          20.6357   73.9252   -1.6491 C.3     1  UNL1        0.1582
     31 C          21.3109   74.6615   -0.4879 C.3     1  UNL1        0.1625
     32 C          21.3308   73.7469    0.7399 C.3     1  UNL1        0.1686
     33 C          22.0501   72.4433    0.3831 C.3     1  UNL1        0.1760
     34 O          20.5773   75.8506   -0.1857 O.3     1  UNL1       -0.3801
     35 O          19.9907   73.4588    1.1427 O.3     1  UNL1       -0.3794
     36 O          21.3904   71.8245   -0.7231 O.3     1  UNL1       -0.3263
     37 H          20.9499   76.3681    0.5412 H       1  UNL1        0.2105
     38 H          19.9273   72.8818    1.9167 H       1  UNL1        0.2105
     39 C          21.6828   75.6431   -3.0239 C.2     1  UNL1        0.2231
     40 C          21.7262   76.5045   -4.2587 C.3     1  UNL1        0.0946
     41 N          20.6771   74.7630   -2.8503 N.am    1  UNL1       -0.2994
     42 O          22.5535   75.7413   -2.1847 O.2     1  UNL1       -0.2751
     43 H          19.9802   74.6849   -3.5205 H       1  UNL1        0.1496
     44 C          22.0220   71.4996    1.5870 C.3     1  UNL1        0.1693
     45 O          21.6128   70.1976    1.1631 O.3     1  UNL1       -0.3794
     46 H          21.5723   69.5459    1.8762 H       1  UNL1        0.2105
@<TRIPOS>BOND
     1    29    30    1
     2    30    41    1
     3    30    31    1
     4    31    34    1
     5    31    32    1
     6    32    35    1
     7    32    33    1
     8    33    36    1
     9    33    44    1
    10    39    40    1
    11    39    42    2
    12    39    41   am
    13    41    43    1
    14    29    28    1
    15    34    37    1
    16    35    38    1
    17    29    36    1
    18    44    45    1
    19    45    46    1
    20    15     6    1
    21    15    16   ar
    22    16    21    2
    23    16    17   ar
    24    17    23    1
    25    17    18   ar
    26    18    19   ar
    27    19    20   ar
    28    15    20   ar
    29    18    22    2
    30     6     7    1
    31     6    11    1
    32     7     9    1
    33     7     8    1
    34     8    13    1
    35     9    10    1
    36     9    12    1
    37    10     5    1
    38    10    11    1
    39    12    14    1
    40     5     4    1
    41     4     1    1
    42     1     2    1
    43     1    24    1
    44     1     3    2
    45    24    25    1
    46    28    25    1
    47    25    26    1
    48    25    27    2
@<TRIPOS>MOLECULE
UD2
 46 48 0 0 0
SMALL
GASTEIGER

@<TRIPOS>ATOM
      1 P          21.5862   72.5242   -5.2978 P.3     1  UNL1        0.2189
      2 O          22.8187   72.5641   -6.3325 O.3     1  UNL1       -0.4371
      3 O          20.7155   73.6992   -5.5213 O.2     1  UNL1       -0.5170
      4 O          20.7367   71.1753   -5.5272 O.3     1  UNL1       -0.3112
      5 C          20.4595   70.2439   -4.4797 C.3     1  UNL1        0.1811
      6 C          16.9923   71.1142   -4.8771 C.3     1  UNL1        0.2383
      7 C          17.0403   69.5841   -5.1192 C.3     1  UNL1        0.1895
      8 O          15.8195   68.9644   -4.7101 O.3     1  UNL1       -0.3779
      9 C          18.2138   69.1472   -4.2085 C.3     1  UNL1        0.1713
     10 C          19.0225   70.4403   -3.9903 C.3     1  UNL1        0.1764
     11 O          18.3843   71.4777   -4.7517 O.3     1  UNL1       -0.3308
     12 O          17.7206   68.6491   -2.9638 O.3     1  UNL1       -0.3794
     13 H          15.8006   68.0069   -4.8422 H       1  UNL1        0.2106
     14 H          17.1558   67.8691   -3.0474 H       1  UNL1        0.2105
     15 N          16.3808   71.7981   -6.0187 N.ar    1  UNL1       -0.2551
     16 C          16.6559   71.3848   -7.2686 C.ar    1  UNL1        0.3323
     17 N          16.1083   71.9950   -8.3363 N.ar    1  UNL1       -0.2743
     18 C          15.2682   73.0361   -8.1662 C.ar    1  UNL1        0.2626
     19 C          14.9690   73.4810   -6.8560 C.ar    1  UNL1        0.0795
     20 C          15.5290   72.8481   -5.8038 C.ar    1  UNL1        0.0869
     21 O          17.4114   70.4472   -7.4369 O.2     1  UNL1       -0.2464
     22 O          14.7716   73.5890   -9.1318 O.2     1  UNL1       -0.2670
     23 H          16.3182   71.6850   -9.2307 H       1  UNL1        0.1734
     24 O          22.1500   72.5526   -3.7897 O.3     1  UNL1       -0.2703
     25 P          23.5892   72.2616   -3.1286 P.3     1  UNL1        0.2208
     26 O          23.9631   70.7069   -3.3208 O.3     1  UNL1       -0.4371
     27 O          24.6140   73.1000   -3.7885 O.2     1  UNL1       -0.5170
     28 O          23.5389   72.6117   -1.5578 O.3     1  UNL1       -0.2865
     29 C          22.7749   71.8563   -0.6160 C.3     1  UNL1        0.2611
     30 C          21.7855   72.7803    0.0981 C.3     1  UNL1        0.1582
     31 C          22.5649   73.8438    0.8778 C.3     1  UNL1        0.1625
     32 C          23.5186   73.1494    1.8537 C.3     1  UNL1        0.1686
     33 C          24.4415   72.2109    1.0717 C.3     1  UNL1        0.1760
     34 O          21.6510   74.6664    1.6069 O.3     1  UNL1       -0.3801
     35 O          22.7638   72.3953    2.8040 O.3     1  UNL1       -0.3794
     36 O          23.6529   71.2665    0.3450 O.3     1  UNL1       -0.3263
     37 H          22.0767   75.3637    2.1241 H       1  UNL1        0.2105
     38 H          23.3053   71.9269    3.4548 H       1  UNL1        0.2105
     39 C          19.6200   73.6386   -0.6173 C.2     1  UNL1        0.2231
     40 C          18.7330   74.3087   -1.6336 C.3     1  UNL1        0.0946
     41 N          20.9233   73.4320   -0.8910 N.am    1  UNL1       -0.2994
     42 O          19.1614   73.2842    0.4486 O.2     1  UNL1       -0.2751
     43 H          21.2902   73.7142   -1.7435 H       1  UNL1        0.1496
     44 C          25.3577   71.4684    2.0462 C.3     1  UNL1        0.1693
     45 O          24.8129   70.1765    2.3230 O.3     1  UNL1       -0.3794
     46 H          25.3430   69.6485    2.9355 H       1  UNL1        0.2105
@<TRIPOS>BOND
     1    29    30    1
     2    30    41    1
     3    30    31    1
     4    31    34    1
     5    31    32    1
     6    32    35    1
     7    32    33    1
     8    33    36    1
     9    33    44    1
    10    39    40    1
    11    39    42    2
    12    39    41   am
    13    41    43    1
    14    29    28    1
    15    34    37    1
    16    35    38    1
    17    29    36    1
    18    44    45    1
    19    45    46    1
    20    15     6    1
    21    15    16   ar
    22    16    21    2
    23    16    17   ar
    24    17    23    1
    25    17    18   ar
    26    18    19   ar
    27    19    20   ar
    28    15    20   ar
    29    18    22    2
    30     6     7    1
    31     6    11    1
    32     7     9    1
    33     7     8    1
    34     8    13    1
    35     9    10    1
    36     9    12    1
    37    10     5    1
    38    10    11    1
    39    12    14    1
    40     5     4    1
    41     4     1    1
    42     1     2    1
    43     1    24    1
    44     1     3    2
    45    24    25    1
    46    28    25    1
    47    25    26    1
    48    25    27    2
@<TRIPOS>MOLECULE
UD2
 46 48 0 0 0
SMALL
GASTEIGER

@<TRIPOS>ATOM
      1 P          20.8315   71.5193   -2.8794 P.3     1  UNL1        0.2189
      2 O          21.0335   71.4398   -1.2843 O.3     1  UNL1       -0.4371
      3 O          21.2391   70.2364   -3.4934 O.2     1  UNL1       -0.5170
      4 O          19.2813   71.8041   -3.2103 O.3     1  UNL1       -0.3112
      5 C          18.2096   71.1067   -2.5725 C.3     1  UNL1        0.1811
      6 C          16.7870   70.5084   -5.8214 C.3     1  UNL1        0.2383
      7 C          16.8519   69.1080   -5.1605 C.3     1  UNL1        0.1895
      8 O          15.7911   68.2732   -5.6290 O.3     1  UNL1       -0.3779
      9 C          16.6669   69.4471   -3.6611 C.3     1  UNL1        0.1713
     10 C          17.0536   70.9350   -3.5610 C.3     1  UNL1        0.1764
     11 O          17.4632   71.3596   -4.8707 O.3     1  UNL1       -0.3308
     12 O          15.3060   69.2561   -3.2707 O.3     1  UNL1       -0.3794
     13 H          15.7894   67.3861   -5.2448 H       1  UNL1        0.2106
     14 H          14.9914   68.3475   -3.3697 H       1  UNL1        0.2105
     15 N          17.4921   70.5061   -7.1051 N.ar    1  UNL1       -0.2551
     16 C          16.7896   70.5470   -8.2512 C.ar    1  UNL1        0.3323
     17 N          17.4114   70.5458   -9.4453 N.ar    1  UNL1       -0.2743
     18 C          18.7578   70.5051   -9.5094 C.ar    1  UNL1        0.2626
     19 C          19.5098   70.4628   -8.3107 C.ar    1  UNL1        0.0795
     20 C          18.8604   70.4694   -7.1276 C.ar    1  UNL1        0.0869
     21 O          15.5751   70.5842   -8.2086 O.2     1  UNL1       -0.2464
     22 O          19.3217   70.5043  -10.5894 O.2     1  UNL1       -0.2670
     23 H          16.8897   70.5744  -10.2621 H       1  UNL1        0.1734
     24 O          21.7347   72.7114   -3.4763 O.3     1  UNL1       -0.2703
     25 P          23.1929   72.7761   -4.1563 P.3     1  UNL1        0.2208
     26 O          24.1564   71.6874   -3.4635 O.3     1  UNL1       -0.4371
     27 O          23.0770   72.4826   -5.6016 O.2     1  UNL1       -0.5170
     28 O          23.8138   74.2481   -3.9552 O.3     1  UNL1       -0.2865
     29 C          25.0875   74.4798   -3.3508 C.3     1  UNL1        0.2611
     30 C          24.9172   75.3915   -2.1332 C.3     1  UNL1        0.1582
     31 C          24.3673   76.7453   -2.5927 C.3     1  UNL1        0.1625
     32 C          25.3157   77.3418   -3.6364 C.3     1  UNL1        0.1686
     33 C          25.4705   76.3546   -4.7964 C.3     1  UNL1        0.1760
     34 O          24.2743   77.6279   -1.4721 O.3     1  UNL1       -0.3801
     35 O          26.5914   77.5828   -3.0401 O.3     1  UNL1       -0.3794
     36 O          25.9560   75.1071   -4.2965 O.3     1  UNL1       -0.3263
     37 H          23.9318   78.5054   -1.6905 H       1  UNL1        0.2105
     38 H          27.2443   77.9609   -3.6457 H       1  UNL1        0.2105
     39 C          24.2337   74.8158    0.1338 C.2     1  UNL1        0.2231
     40 C          23.2707   74.1848    1.1049 C.3     1  UNL1        0.0946
     41 N          23.9801   74.7772   -1.1892 N.am    1  UNL1       -0.2994
     42 O          25.2386   75.3593    0.5424 O.2     1  UNL1       -0.2751
     43 H          23.1773   74.3420   -1.5164 H       1  UNL1        0.1496
     44 C          26.4633   76.9173   -5.8154 C.3     1  UNL1        0.1693
     45 O          27.7575   76.3591   -5.5789 O.3     1  UNL1       -0.3794
     46 H          28.4389   76.6721   -6.1895 H       1  UNL1        0.2105
@<TRIPOS>BOND
     1    29    30    1
     2    30    41    1
     3    30    31    1
     4    31    34    1
     5    31    32    1
     6    32    35    1
     7    32    33    1
     8    33    36    1
     9    33    44    1
    10    39    40    1
    11    39    42    2
    12    39    41   am
    13    41    43    1
    14    29    28    1
    15    34    37    1
    16    35    38    1
    17    29    36    1
    18    44    45    1
    19    45    46    1
    20    15     6    1
    21    15    16   ar
    22    16    21    2
    23    16    17   ar
    24    17    23    1
    25    17    18   ar
    26    18    19   ar
    27    19    20   ar
    28    15    20   ar
    29    18    22    2
    30     6     7    1
    31     6    11    1
    32     7     9    1
    33     7     8    1
    34     8    13    1
    35     9    10    1
    36     9    12    1
    37    10     5    1
    38    10    11    1
    39    12    14    1
    40     5     4    1
    41     4     1    1
    42     1     2    1
    43     1    24    1
    44     1     3    2
    45    24    25    1
    46    28    25    1
    47    25    26    1
    48    25    27    2
@<TRIPOS>MOLECULE
UD2
 46 48 0 0 0
SMALL
GASTEIGER

@<TRIPOS>ATOM
      1 P          21.2596   71.2511   -0.6978 P.3     1  UNL1        0.2189
      2 O          22.7645   70.9939   -1.2081 O.3     1  UNL1       -0.4371
      3 O          21.0164   70.4717    0.5360 O.2     1  UNL1       -0.5170
      4 O          21.0578   72.8191   -0.3907 O.3     1  UNL1       -0.3112
      5 C          22.0220   73.6033    0.3140 C.3     1  UNL1        0.1811
      6 C          24.2528   73.0218    3.0748 C.3     1  UNL1        0.2383
      7 C          22.9742   73.6096    3.7241 C.3     1  UNL1        0.1895
      8 O          22.7892   73.0941    5.0439 O.3     1  UNL1       -0.3779
      9 C          21.8633   73.1022    2.7723 C.3     1  UNL1        0.1713
     10 C          22.6081   72.7790    1.4629 C.3     1  UNL1        0.1764
     11 O          23.9882   73.1258    1.6589 O.3     1  UNL1       -0.3308
     12 O          21.2504   71.9260    3.3030 O.3     1  UNL1       -0.3794
     13 H          22.0024   73.4328    5.4920 H       1  UNL1        0.2106
     14 H          20.8168   72.0585    4.1568 H       1  UNL1        0.2105
     15 N          25.4283   73.8155    3.4399 N.ar    1  UNL1       -0.2551
     16 C          26.6521   73.2612    3.3778 C.ar    1  UNL1        0.3323
     17 N          27.7499   73.9671    3.7077 N.ar    1  UNL1       -0.2743
     18 C          27.6372   75.2504    4.1065 C.ar    1  UNL1        0.2626
     19 C          26.3552   75.8468    4.1756 C.ar    1  UNL1        0.0795
     20 C          25.2722   75.1169    3.8349 C.ar    1  UNL1        0.0869
     21 O          26.7688   72.1051    3.0198 O.2     1  UNL1       -0.2464
     22 O          28.6300   75.8905    4.4050 O.2     1  UNL1       -0.2670
     23 H          28.6247   73.5518    3.6585 H       1  UNL1        0.1734
     24 O          20.2199   70.7901   -1.8379 O.3     1  UNL1       -0.2703
     25 P          19.9720   71.2274   -3.3677 P.3     1  UNL1        0.2208
     26 O          19.7011   72.8136   -3.4348 O.3     1  UNL1       -0.4371
     27 O          21.1666   70.8971   -4.1753 O.2     1  UNL1       -0.5170
     28 O          18.6947   70.4393   -3.9509 O.3     1  UNL1       -0.2865
     29 C          17.4767   71.0918   -4.3141 C.3     1  UNL1        0.2611
     30 C          16.3439   70.0641   -4.3721 C.3     1  UNL1        0.1582
     31 C          16.6592   69.0302   -5.4575 C.3     1  UNL1        0.1625
     32 C          16.8570   69.7522   -6.7932 C.3     1  UNL1        0.1686
     33 C          17.9703   70.7921   -6.6417 C.3     1  UNL1        0.1760
     34 O          15.5722   68.1087   -5.5691 O.3     1  UNL1       -0.3801
     35 O          15.6421   70.4036   -7.1685 O.3     1  UNL1       -0.3794
     36 O          17.6288   71.7044   -5.5962 O.3     1  UNL1       -0.3263
     37 H          15.7047   67.4240   -6.2390 H       1  UNL1        0.2105
     38 H          15.6949   70.8830   -8.0071 H       1  UNL1        0.2105
     39 C          15.3473   69.8452   -2.1593 C.2     1  UNL1        0.2231
     40 C          15.2250   69.1550   -0.8262 C.3     1  UNL1        0.0946
     41 N          16.2257   69.3923   -3.0755 N.am    1  UNL1       -0.2994
     42 O          14.6547   70.8096   -2.4090 O.2     1  UNL1       -0.2751
     43 H          16.7803   68.6219   -2.8759 H       1  UNL1        0.1496
     44 C          18.1335   71.5592   -7.9553 C.3     1  UNL1        0.1693
     45 O          19.5238   71.7211   -8.2437 O.3     1  UNL1       -0.3794
     46 H          19.7027   72.2001   -9.0644 H       1  UNL1        0.2105
@<TRIPOS>BOND
     1    29    30    1
     2    30    41    1
     3    30    31    1
     4    31    34    1
     5    31    32    1
     6    32    35    1
     7    32    33    1
     8    33    36    1
     9    33    44    1
    10    39    40    1
    11    39    42    2
    12    39    41   am
    13    41    43    1
    14    29    28    1
    15    34    37    1
    16    35    38    1
    17    29    36    1
    18    44    45    1
    19    45    46    1
    20    15     6    1
    21    15    16   ar
    22    16    21    2
    23    16    17   ar
    24    17    23    1
    25    17    18   ar
    26    18    19   ar
    27    19    20   ar
    28    15    20   ar
    29    18    22    2
    30     6     7    1
    31     6    11    1
    32     7     9    1
    33     7     8    1
    34     8    13    1
    35     9    10    1
    36     9    12    1
    37    10     5    1
    38    10    11    1
    39    12    14    1
    40     5     4    1
    41     4     1    1
    42     1     2    1
    43     1    24    1
    44     1     3    2
    45    24    25    1
    46    28    25    1
    47    25    26    1
    48    25    27    2
@<TRIPOS>MOLECULE
UD2
 46 48 0 0 0
SMALL
GASTEIGER

@<TRIPOS>ATOM
      1 P          22.7845   71.9623   -3.4011 P.3     1  UNL1        0.2189
      2 O          23.9160   72.4799   -4.4225 O.3     1  UNL1       -0.4371
      3 O          23.2288   70.7002   -2.7700 O.2     1  UNL1       -0.5170
      4 O          22.5401   73.0748   -2.2625 O.3     1  UNL1       -0.3112
      5 C          22.1365   72.7488   -0.9313 C.3     1  UNL1        0.1811
      6 C          23.8927   72.8754    2.2050 C.3     1  UNL1        0.2383
      7 C          23.4596   71.3943    2.0604 C.3     1  UNL1        0.1895
      8 O          24.3981   70.5241    2.6958 O.3     1  UNL1       -0.3779
      9 C          23.4772   71.1987    0.5245 C.3     1  UNL1        0.1713
     10 C          23.3740   72.6292   -0.0384 C.3     1  UNL1        0.1764
     11 O          23.2572   73.5220    1.0808 O.3     1  UNL1       -0.3308
     12 O          24.7005   70.5861    0.1135 O.3     1  UNL1       -0.3794
     13 H          24.1705   69.5866    2.6330 H       1  UNL1        0.2106
     14 H          24.8453   69.7061    0.4865 H       1  UNL1        0.2105
     15 N          23.4033   73.4350    3.4668 N.ar    1  UNL1       -0.2551
     16 C          24.2528   74.0870    4.2806 C.ar    1  UNL1        0.3323
     17 N          23.8305   74.6112    5.4464 N.ar    1  UNL1       -0.2743
     18 C          22.5394   74.4908    5.8166 C.ar    1  UNL1        0.2626
     19 C          21.6341   73.8079    4.9692 C.ar    1  UNL1        0.0795
     20 C          22.0839   73.2960    3.8043 C.ar    1  UNL1        0.0869
     21 O          25.4197   74.2034    3.9594 O.2     1  UNL1       -0.2464
     22 O          22.1559   74.9652    6.8713 O.2     1  UNL1       -0.2670
     23 H          24.4565   75.0772    6.0219 H       1  UNL1        0.1734
     24 O          21.4123   71.7071   -4.2044 O.3     1  UNL1       -0.2703
     25 P          19.8836   71.4686   -3.7581 P.3     1  UNL1        0.2208
     26 O          19.8346   70.3776   -2.5745 O.3     1  UNL1       -0.4371
     27 O          19.3049   72.7426   -3.2781 O.2     1  UNL1       -0.5170
     28 O          19.0344   70.9335   -5.0172 O.3     1  UNL1       -0.2865
     29 C          18.1562   71.7677   -5.7749 C.3     1  UNL1        0.2611
     30 C          16.7653   71.1310   -5.8278 C.3     1  UNL1        0.1582
     31 C          16.8583   69.7808   -6.5452 C.3     1  UNL1        0.1625
     32 C          17.4517   69.9958   -7.9402 C.3     1  UNL1        0.1686
     33 C          18.8165   70.6765   -7.8058 C.3     1  UNL1        0.1760
     34 O          15.5521   69.2127   -6.6642 O.3     1  UNL1       -0.3801
     35 O          16.5777   70.8247   -8.7085 O.3     1  UNL1       -0.3794
     36 O          18.6640   71.9113   -7.1030 O.3     1  UNL1       -0.3263
     37 H          15.5360   68.3542   -7.1092 H       1  UNL1        0.2105
     38 H          16.8921   71.0037   -9.6057 H       1  UNL1        0.2105
     39 C          16.4590   69.7459   -3.8465 C.2     1  UNL1        0.2231
     40 C          15.9482   69.5365   -2.4452 C.3     1  UNL1        0.0946
     41 N          16.2679   70.9280   -4.4647 N.am    1  UNL1       -0.2994
     42 O          17.0429   68.8500   -4.4197 O.2     1  UNL1       -0.2751
     43 H          15.8002   71.6443   -4.0072 H       1  UNL1        0.1496
     44 C          19.3896   70.9489   -9.1978 C.3     1  UNL1        0.1693
     45 O          18.7234   70.1258  -10.1575 O.3     1  UNL1       -0.3794
     46 H          19.0366   70.2459  -11.0644 H       1  UNL1        0.2105
@<TRIPOS>BOND
     1    29    30    1
     2    30    41    1
     3    30    31    1
     4    31    34    1
     5    31    32    1
     6    32    35    1
     7    32    33    1
     8    33    36    1
     9    33    44    1
    10    39    40    1
    11    39    42    2
    12    39    41   am
    13    41    43    1
    14    29    28    1
    15    34    37    1
    16    35    38    1
    17    29    36    1
    18    44    45    1
    19    45    46    1
    20    15     6    1
    21    15    16   ar
    22    16    21    2
    23    16    17   ar
    24    17    23    1
    25    17    18   ar
    26    18    19   ar
    27    19    20   ar
    28    15    20   ar
    29    18    22    2
    30     6     7    1
    31     6    11    1
    32     7     9    1
    33     7     8    1
    34     8    13    1
    35     9    10    1
    36     9    12    1
    37    10     5    1
    38    10    11    1
    39    12    14    1
    40     5     4    1
    41     4     1    1
    42     1     2    1
    43     1    24    1
    44     1     3    2
    45    24    25    1
    46    28    25    1
    47    25    26    1
    48    25    27    2
@<TRIPOS>MOLECULE
UD2
 46 48 0 0 0
SMALL
GASTEIGER

@<TRIPOS>ATOM
      1 P          17.8388   74.8738   -1.9536 P.3     1  UNL1        0.2189
      2 O          18.2331   75.4755   -3.3936 O.3     1  UNL1       -0.4371
      3 O          16.8751   75.7775   -1.2876 O.2     1  UNL1       -0.5170
      4 O          17.1692   73.4215   -2.1441 O.3     1  UNL1       -0.3112
      5 C          17.8251   72.3457   -2.8177 C.3     1  UNL1        0.1811
      6 C          16.7836   70.6862   -5.8340 C.3     1  UNL1        0.2383
      7 C          17.2722   69.5427   -4.9089 C.3     1  UNL1        0.1895
      8 O          16.5528   68.3353   -5.1668 O.3     1  UNL1       -0.3779
      9 C          16.9361   70.0962   -3.5024 C.3     1  UNL1        0.1713
     10 C          16.8205   71.6178   -3.7143 C.3     1  UNL1        0.1764
     11 O          17.1170   71.8812   -5.0949 O.3     1  UNL1       -0.3308
     12 O          15.6961   69.5597   -3.0384 O.3     1  UNL1       -0.3794
     13 H          16.8229   67.5903   -4.6131 H       1  UNL1        0.2106
     14 H          15.6938   68.5977   -2.9435 H       1  UNL1        0.2105
     15 N          17.4961   70.6547   -7.1133 N.ar    1  UNL1       -0.2551
     16 C          16.8004   70.5784   -8.2618 C.ar    1  UNL1        0.3323
     17 N          17.4290   70.5477   -9.4518 N.ar    1  UNL1       -0.2743
     18 C          18.7755   70.5952   -9.5095 C.ar    1  UNL1        0.2626
     19 C          19.5203   70.6766   -8.3084 C.ar    1  UNL1        0.0795
     20 C          18.8638   70.7100   -7.1297 C.ar    1  UNL1        0.0869
     21 O          15.5859   70.5352   -8.2248 O.2     1  UNL1       -0.2464
     22 O          19.3456   70.5678  -10.5860 O.2     1  UNL1       -0.2670
     23 H          16.9122   70.4914  -10.2703 H       1  UNL1        0.1734
     24 O          19.1630   74.7387   -1.0472 O.3     1  UNL1       -0.2703
     25 P          19.4277   74.6477    0.5386 P.3     1  UNL1        0.2208
     26 O          19.9788   76.0637    1.0723 O.3     1  UNL1       -0.4371
     27 O          18.1632   74.3181    1.2320 O.2     1  UNL1       -0.5170
     28 O          20.5179   73.5006    0.8356 O.3     1  UNL1       -0.2865
     29 C          21.9119   73.7728    0.9903 C.3     1  UNL1        0.2611
     30 C          22.7208   72.5305    0.6093 C.3     1  UNL1        0.1582
     31 C          22.3619   71.3861    1.5621 C.3     1  UNL1        0.1625
     32 C          22.6279   71.8328    3.0023 C.3     1  UNL1        0.1686
     33 C          21.8224   73.1023    3.2911 C.3     1  UNL1        0.1760
     34 O          23.1661   70.2437    1.2601 O.3     1  UNL1       -0.3801
     35 O          24.0211   72.1022    3.1692 O.3     1  UNL1       -0.3794
     36 O          22.1816   74.1167    2.3509 O.3     1  UNL1       -0.3263
     37 H          22.9909   69.4792    1.8258 H       1  UNL1        0.2105
     38 H          24.2624   72.3916    4.0602 H       1  UNL1        0.2105
     39 C          21.4497   71.2152   -1.0007 C.2     1  UNL1        0.2231
     40 C          21.1197   70.8144   -2.4146 C.3     1  UNL1        0.0946
     41 N          22.4005   72.1410   -0.7663 N.am    1  UNL1       -0.2994
     42 O          20.8595   70.7044   -0.0718 O.2     1  UNL1       -0.2751
     43 H          22.8733   72.5489   -1.5087 H       1  UNL1        0.1496
     44 C          22.1287   73.5889    4.7088 C.3     1  UNL1        0.1693
     45 O          22.3712   72.4646    5.5571 O.3     1  UNL1       -0.3794
     46 H          22.5724   72.6988    6.4735 H       1  UNL1        0.2105
@<TRIPOS>BOND
     1    29    30    1
     2    30    41    1
     3    30    31    1
     4    31    34    1
     5    31    32    1
     6    32    35    1
     7    32    33    1
     8    33    36    1
     9    33    44    1
    10    39    40    1
    11    39    42    2
    12    39    41   am
    13    41    43    1
    14    29    28    1
    15    34    37    1
    16    35    38    1
    17    29    36    1
    18    44    45    1
    19    45    46    1
    20    15     6    1
    21    15    16   ar
    22    16    21    2
    23    16    17   ar
    24    17    23    1
    25    17    18   ar
    26    18    19   ar
    27    19    20   ar
    28    15    20   ar
    29    18    22    2
    30     6     7    1
    31     6    11    1
    32     7     9    1
    33     7     8    1
    34     8    13    1
    35     9    10    1
    36     9    12    1
    37    10     5    1
    38    10    11    1
    39    12    14    1
    40     5     4    1
    41     4     1    1
    42     1     2    1
    43     1    24    1
    44     1     3    2
    45    24    25    1
    46    28    25    1
    47    25    26    1
    48    25    27    2
