@<TRIPOS>MOLECULE
*****
 43 45 0 0 0
SMALL
GASTEIGER

@<TRIPOS>ATOM
      1 P          23.0171   71.6086   -2.5222 P.3     1  UNL1        0.2189
      2 O          23.2928   73.1180   -2.0079 O.co2   1  UNL1       -0.4371
      3 O          24.1938   70.9326   -3.1625 O.2     1  UNL1       -0.5170
      4 O          21.6977   71.7487   -3.4484 O.3     1  UNL1       -0.3112
      5 C          20.8764   70.6102   -3.6317 C.3     1  UNL1        0.1811
      6 O          18.9000   71.6152   -4.5598 O.3     1  UNL1       -0.3308
      7 O          17.3978   70.2641   -2.3441 O.3     1  UNL1       -0.3794
      8 O          16.9104   68.6339   -4.4751 O.3     1  UNL1       -0.3779
      9 C          18.5276   69.8005   -3.0838 C.3     1  UNL1        0.1713
     10 C          18.1069   69.3841   -4.4773 C.3     1  UNL1        0.1895
     11 C          19.4269   70.9962   -3.3664 C.3     1  UNL1        0.1764
     12 C          17.9549   70.7252   -5.1747 C.3     1  UNL1        0.2383
     13 H          16.8084   69.5176   -2.1517 H       1  UNL1        0.2105
     14 H          17.0591   67.7895   -4.0202 H       1  UNL1        0.2106
     15 O          16.0026   70.2772   -7.1657 O.2     1  UNL1       -0.2464
     16 O          19.1404   70.4420  -10.5377 O.2     1  UNL1       -0.2670
     17 N          18.2341   70.6465   -6.5807 N.ar    1  UNL1       -0.2551
     18 N          17.5674   70.3587   -8.8432 N.ar    1  UNL1       -0.2743
     19 C          17.1811   70.4179   -7.4977 C.ar    1  UNL1        0.3323
     20 C          19.5375   70.7965   -7.0384 C.ar    1  UNL1        0.0869
     21 C          19.8903   70.7377   -8.3240 C.ar    1  UNL1        0.0795
     22 C          18.8503   70.5012   -9.3467 C.ar    1  UNL1        0.2626
     23 H          16.8519   70.1984   -9.5002 H       1  UNL1        0.1734
     24 O          22.4550   70.8710   -1.1983 O.3     1  UNL1       -0.2703
     25 P          21.7089   71.4604    0.1092 P.3     1  UNL1        0.2208
     26 O          21.2153   70.1284    0.8853 O.co2   1  UNL1       -0.4371
     27 O          20.6129   72.4400   -0.1963 O.2     1  UNL1       -0.5170
     28 O          22.8970   72.0500    1.0275 O.3     1  UNL1       -0.2858
     29 O          24.6412   71.2989    2.4426 O.3     1  UNL1       -0.3226
     30 O          22.7863   74.1223    4.8207 O.3     1  UNL1       -0.3794
     31 O          21.2011   72.2607    3.2220 O.3     1  UNL1       -0.3775
     32 O          25.3190   74.7362    3.5324 O.3     1  UNL1       -0.3792
     33 C          23.2294   73.5384    3.5957 C.3     1  UNL1        0.1718
     34 C          22.6041   72.1527    3.4337 C.3     1  UNL1        0.1968
     35 C          24.7551   73.4311    3.6476 C.3     1  UNL1        0.1723
     36 C          23.2294   71.4047    2.2554 C.3     1  UNL1        0.2706
     37 C          25.2917   72.5659    2.5109 C.3     1  UNL1        0.1830
     38 H          21.8193   74.2005    4.8107 H       1  UNL1        0.2105
     39 H          20.7979   72.7346    3.9658 H       1  UNL1        0.2106
     40 H          24.9853   75.2971    4.2500 H       1  UNL1        0.2106
     41 O          27.4022   73.2461    3.2755 O.co2   1  UNL1       -0.5466
     42 O          27.2111   71.1039    2.5181 O.co2   1  UNL1       -0.5466
     43 C          26.7192   72.1975    2.7531 C.2     1  UNL1        0.0799
@<TRIPOS>UNITY_ATOM_ATTR
2 1
charge -1
26 1
charge -1
41 1
charge -1
@<TRIPOS>BOND
     1     1     4    1
     2     1    24    1
     3     1     2    1
     4     1     3    2
     5    25    28    1
     6    25    24    1
     7    25    26    1
     8    25    27    2
     9     6    11    1
    10     6    12    1
    11    29    36    1
    12    29    37    1
    13     7     9    1
    14     7    13    1
    15     8    10    1
    16     8    14    1
    17     4     5    1
    18    28    36    1
    19    30    33    1
    20    30    38    1
    21    31    34    1
    22    31    39    1
    23    32    35    1
    24    32    40    1
    25    41    43   ar
    26    15    19    2
    27    42    43   ar
    28    16    22    2
    29    17    12    1
    30    17    19   ar
    31    17    20   ar
    32    18    19   ar
    33    18    22   ar
    34    18    23    1
    35     9    10    1
    36     9    11    1
    37    10    12    1
    38    11     5    1
    39    33    34    1
    40    33    35    1
    41    34    36    1
    42    35    37    1
    43    37    43    1
    44    20    21   ar
    45    21    22   ar
@<TRIPOS>MOLECULE
*****
 43 45 0 0 0
SMALL
GASTEIGER

@<TRIPOS>ATOM
      1 P          20.3396   72.0826   -2.6595 P.3     1  UNL1        0.2189
      2 O          20.6641   70.5018   -2.7813 O.co2   1  UNL1       -0.4371
      3 O          18.8815   72.4247   -2.5668 O.2     1  UNL1       -0.5170
      4 O          21.1378   72.7400   -3.9039 O.3     1  UNL1       -0.3112
      5 C          21.8764   71.8876   -4.7597 C.3     1  UNL1        0.1811
      6 O          20.8624   71.3565   -6.8734 O.3     1  UNL1       -0.3308
      7 O          21.2628   74.2430   -7.5799 O.3     1  UNL1       -0.3794
      8 O          18.6217   74.1551   -6.9071 O.3     1  UNL1       -0.3779
      9 C          20.9286   73.6589   -6.3207 C.3     1  UNL1        0.1713
     10 C          19.4848   73.2033   -6.3209 C.3     1  UNL1        0.1895
     11 C          21.6790   72.3395   -6.2010 C.3     1  UNL1        0.1764
     12 C          19.5613   71.9132   -7.1195 C.3     1  UNL1        0.2383
     13 H          20.7951   75.0875   -7.6793 H       1  UNL1        0.2105
     14 H          18.6072   74.9577   -6.3615 H       1  UNL1        0.2106
     15 O          17.4940   70.9718   -8.7978 O.2     1  UNL1       -0.2464
     16 O          15.7875   68.2629   -5.4821 O.2     1  UNL1       -0.2670
     17 N          18.5632   70.9617   -6.7204 N.ar    1  UNL1       -0.2551
     18 N          16.6454   69.6243   -7.1445 N.ar    1  UNL1       -0.2743
     19 C          17.5681   70.5548   -7.6404 C.ar    1  UNL1        0.3323
     20 C          18.5772   70.4409   -5.4322 C.ar    1  UNL1        0.0869
     21 C          17.6911   69.5545   -4.9741 C.ar    1  UNL1        0.0795
     22 C          16.6182   69.0781   -5.8715 C.ar    1  UNL1        0.2626
     23 H          15.9419   69.3275   -7.7660 H       1  UNL1        0.1734
     24 O          21.2203   72.5364   -1.3824 O.3     1  UNL1       -0.2703
     25 P          21.8354   71.6782   -0.1581 P.3     1  UNL1        0.2208
     26 O          23.2475   71.1512   -0.7485 O.co2   1  UNL1       -0.4371
     27 O          20.9317   70.5907    0.3467 O.2     1  UNL1       -0.5170
     28 O          22.2423   72.7784    0.9493 O.3     1  UNL1       -0.2858
     29 O          23.4912   71.4986    2.5021 O.3     1  UNL1       -0.3226
     30 O          24.1149   75.3412    3.8853 O.3     1  UNL1       -0.3794
     31 O          21.4641   74.5020    2.9888 O.3     1  UNL1       -0.3775
     32 O          26.2148   73.9560    2.4285 O.3     1  UNL1       -0.3792
     33 C          23.8827   74.3313    2.9035 C.3     1  UNL1        0.1718
     34 C          22.5617   73.6218    3.2016 C.3     1  UNL1        0.1968
     35 C          25.0455   73.3381    2.9626 C.3     1  UNL1        0.1723
     36 C          22.3904   72.3886    2.3134 C.3     1  UNL1        0.2706
     37 C          24.7453   72.0801    2.1527 C.3     1  UNL1        0.1830
     38 H          23.3884   75.9840    3.8663 H       1  UNL1        0.2105
     39 H          21.5664   75.2869    3.5491 H       1  UNL1        0.2106
     40 H          26.4167   74.7582    2.9351 H       1  UNL1        0.2106
     41 O          25.0755   69.8232    2.6991 O.co2   1  UNL1       -0.5466
     42 O          26.9326   71.1357    2.5337 O.co2   1  UNL1       -0.5466
     43 C          25.7202   70.9953    2.4769 C.2     1  UNL1        0.0799
@<TRIPOS>UNITY_ATOM_ATTR
2 1
charge -1
26 1
charge -1
41 1
charge -1
@<TRIPOS>BOND
     1     1     4    1
     2     1    24    1
     3     1     2    1
     4     1     3    2
     5    25    28    1
     6    25    24    1
     7    25    26    1
     8    25    27    2
     9     6    11    1
    10     6    12    1
    11    29    36    1
    12    29    37    1
    13     7     9    1
    14     7    13    1
    15     8    10    1
    16     8    14    1
    17     4     5    1
    18    28    36    1
    19    30    33    1
    20    30    38    1
    21    31    34    1
    22    31    39    1
    23    32    35    1
    24    32    40    1
    25    41    43   ar
    26    15    19    2
    27    42    43   ar
    28    16    22    2
    29    17    12    1
    30    17    19   ar
    31    17    20   ar
    32    18    19   ar
    33    18    22   ar
    34    18    23    1
    35     9    10    1
    36     9    11    1
    37    10    12    1
    38    11     5    1
    39    33    34    1
    40    33    35    1
    41    34    36    1
    42    35    37    1
    43    37    43    1
    44    20    21   ar
    45    21    22   ar
@<TRIPOS>MOLECULE
*****
 43 45 0 0 0
SMALL
GASTEIGER

@<TRIPOS>ATOM
      1 P          22.7973   71.4577   -2.5766 P.3     1  UNL1        0.2189
      2 O          22.3577   72.6924   -3.5258 O.co2   1  UNL1       -0.4371
      3 O          24.1097   70.8222   -2.9309 O.2     1  UNL1       -0.5170
      4 O          21.5123   70.4748   -2.5975 O.3     1  UNL1       -0.3112
      5 C          20.7676   70.3610   -3.7963 C.3     1  UNL1        0.1811
      6 O          18.8855   71.5196   -4.7415 O.3     1  UNL1       -0.3308
      7 O          17.2551   70.2675   -2.5585 O.3     1  UNL1       -0.3794
      8 O          16.6764   68.6960   -4.7106 O.3     1  UNL1       -0.3779
      9 C          18.3571   69.7261   -3.2872 C.3     1  UNL1        0.1713
     10 C          17.9258   69.3540   -4.6900 C.3     1  UNL1        0.1895
     11 C          19.3476   70.8529   -3.5468 C.3     1  UNL1        0.1764
     12 C          17.8849   70.7083   -5.3770 C.3     1  UNL1        0.2383
     13 H          16.6086   69.5659   -2.3808 H       1  UNL1        0.2105
     14 H          16.7548   67.8391   -4.2615 H       1  UNL1        0.2106
     15 O          15.9564   70.2111   -7.3796 O.2     1  UNL1       -0.2464
     16 O          19.1196   70.3910  -10.7270 O.2     1  UNL1       -0.2670
     17 N          18.1771   70.6201   -6.7798 N.ar    1  UNL1       -0.2551
     18 N          17.5339   70.3002   -9.0448 N.ar    1  UNL1       -0.2743
     19 C          17.1354   70.3666   -7.7032 C.ar    1  UNL1        0.3323
     20 C          19.4819   70.7856   -7.2282 C.ar    1  UNL1        0.0869
     21 C          19.8463   70.7197   -8.5103 C.ar    1  UNL1        0.0795
     22 C          18.8186   70.4574   -9.5391 C.ar    1  UNL1        0.2626
     23 H          16.8264   70.1226   -9.7060 H       1  UNL1        0.1734
     24 O          22.7389   72.1006   -1.0946 O.3     1  UNL1       -0.2703
     25 P          22.5073   71.4154    0.3513 P.3     1  UNL1        0.2208
     26 O          23.9656   70.8130    0.7128 O.co2   1  UNL1       -0.4371
     27 O          21.3960   70.4065    0.3838 O.2     1  UNL1       -0.5170
     28 O          22.3160   72.6551    1.3657 O.3     1  UNL1       -0.2858
     29 O          23.4743   74.5692    2.1428 O.3     1  UNL1       -0.3226
     30 O          22.3324   72.7809    5.6876 O.3     1  UNL1       -0.3794
     31 O          23.3505   71.1670    3.4755 O.3     1  UNL1       -0.3775
     32 O          20.9284   75.1366    4.7232 O.3     1  UNL1       -0.3792
     33 C          22.2121   73.1398    4.3111 C.3     1  UNL1        0.1718
     34 C          23.4061   72.5877    3.5320 C.3     1  UNL1        0.1968
     35 C          22.1785   74.6671    4.2218 C.3     1  UNL1        0.1723
     36 C          23.4332   73.1421    2.1070 C.3     1  UNL1        0.2706
     37 C          22.3366   75.1445    2.7811 C.3     1  UNL1        0.1830
     38 H          22.3558   71.8144    5.7691 H       1  UNL1        0.2105
     39 H          23.3328   70.8084    4.3764 H       1  UNL1        0.2106
     40 H          20.8154   74.8394    5.6395 H       1  UNL1        0.2106
     41 O          23.9180   76.8266    2.3672 O.co2   1  UNL1       -0.5466
     42 O          21.8297   77.4938    2.9940 O.co2   1  UNL1       -0.5466
     43 C          22.6316   76.6085    2.7368 C.2     1  UNL1        0.0799
@<TRIPOS>UNITY_ATOM_ATTR
2 1
charge -1
26 1
charge -1
41 1
charge -1
@<TRIPOS>BOND
     1     1     4    1
     2     1    24    1
     3     1     2    1
     4     1     3    2
     5    25    28    1
     6    25    24    1
     7    25    26    1
     8    25    27    2
     9     6    11    1
    10     6    12    1
    11    29    36    1
    12    29    37    1
    13     7     9    1
    14     7    13    1
    15     8    10    1
    16     8    14    1
    17     4     5    1
    18    28    36    1
    19    30    33    1
    20    30    38    1
    21    31    34    1
    22    31    39    1
    23    32    35    1
    24    32    40    1
    25    41    43   ar
    26    15    19    2
    27    42    43   ar
    28    16    22    2
    29    17    12    1
    30    17    19   ar
    31    17    20   ar
    32    18    19   ar
    33    18    22   ar
    34    18    23    1
    35     9    10    1
    36     9    11    1
    37    10    12    1
    38    11     5    1
    39    33    34    1
    40    33    35    1
    41    34    36    1
    42    35    37    1
    43    37    43    1
    44    20    21   ar
    45    21    22   ar
@<TRIPOS>MOLECULE
*****
 43 45 0 0 0
SMALL
GASTEIGER

@<TRIPOS>ATOM
      1 P          22.7951   71.4502   -2.4858 P.3     1  UNL1        0.2189
      2 O          22.3437   72.7689   -3.3081 O.co2   1  UNL1       -0.4371
      3 O          24.0810   70.8271   -2.9441 O.2     1  UNL1       -0.5170
      4 O          21.4917   70.4930   -2.5408 O.3     1  UNL1       -0.3112
      5 C          20.7623   70.4129   -3.7516 C.3     1  UNL1        0.1811
      6 O          18.8756   71.5619   -4.6990 O.3     1  UNL1       -0.3308
      7 O          17.2460   70.2884   -2.5278 O.3     1  UNL1       -0.3794
      8 O          16.6869   68.7222   -4.6889 O.3     1  UNL1       -0.3779
      9 C          18.3547   69.7582   -3.2546 C.3     1  UNL1        0.1713
     10 C          17.9314   69.3892   -4.6606 C.3     1  UNL1        0.1895
     11 C          19.3379   70.8934   -3.5054 C.3     1  UNL1        0.1764
     12 C          17.8833   70.7462   -5.3419 C.3     1  UNL1        0.2383
     13 H          16.6039   69.5814   -2.3556 H       1  UNL1        0.2105
     14 H          16.7698   67.8640   -4.2433 H       1  UNL1        0.2106
     15 O          15.9745   70.1962   -7.3495 O.2     1  UNL1       -0.2464
     16 O          19.1403   70.4638  -10.6887 O.2     1  UNL1       -0.2670
     17 N          18.1815   70.6663   -6.7439 N.ar    1  UNL1       -0.2551
     18 N          17.5532   70.3290   -9.0106 N.ar    1  UNL1       -0.2743
     19 C          17.1496   70.3842   -7.6700 C.ar    1  UNL1        0.3323
     20 C          19.4824   70.8678   -7.1889 C.ar    1  UNL1        0.0869
     21 C          19.8518   70.8121   -8.4700 C.ar    1  UNL1        0.0795
     22 C          18.8344   70.5217   -9.5015 C.ar    1  UNL1        0.2626
     23 H          16.8527   70.1320   -9.6737 H       1  UNL1        0.1734
     24 O          22.8044   71.9638   -0.9532 O.3     1  UNL1       -0.2703
     25 P          22.3527   71.2302    0.4148 P.3     1  UNL1        0.2208
     26 O          23.6202   70.2858    0.7640 O.co2   1  UNL1       -0.4371
     27 O          21.0448   70.4993    0.3188 O.2     1  UNL1       -0.5170
     28 O          22.3899   72.3917    1.5337 O.3     1  UNL1       -0.2858
     29 O          22.0282   72.5977    3.8652 O.3     1  UNL1       -0.3226
     30 O          19.9259   75.8378    2.3989 O.3     1  UNL1       -0.3794
     31 O          19.7889   73.2502    1.0498 O.3     1  UNL1       -0.3775
     32 O          22.5060   76.2308    3.6794 O.3     1  UNL1       -0.3792
     33 C          20.9700   74.8645    2.4229 C.3     1  UNL1        0.1718
     34 C          20.3653   73.4631    2.3332 C.3     1  UNL1        0.1968
     35 C          21.7398   75.0290    3.7353 C.3     1  UNL1        0.1723
     36 C          21.4271   72.3919    2.5862 C.3     1  UNL1        0.2706
     37 C          22.6872   73.8573    3.9760 C.3     1  UNL1        0.1830
     38 H          19.4228   75.7523    1.5737 H       1  UNL1        0.2105
     39 H          19.1145   73.9266    0.8825 H       1  UNL1        0.2106
     40 H          21.9147   76.9844    3.5264 H       1  UNL1        0.2106
     41 O          22.5654   72.8846    6.1069 O.co2   1  UNL1       -0.5466
     42 O          24.0229   74.6170    5.8361 O.co2   1  UNL1       -0.5466
     43 C          23.1803   73.8550    5.3864 C.2     1  UNL1        0.0799
@<TRIPOS>UNITY_ATOM_ATTR
2 1
charge -1
26 1
charge -1
41 1
charge -1
@<TRIPOS>BOND
     1     1     4    1
     2     1    24    1
     3     1     2    1
     4     1     3    2
     5    25    28    1
     6    25    24    1
     7    25    26    1
     8    25    27    2
     9     6    11    1
    10     6    12    1
    11    29    36    1
    12    29    37    1
    13     7     9    1
    14     7    13    1
    15     8    10    1
    16     8    14    1
    17     4     5    1
    18    28    36    1
    19    30    33    1
    20    30    38    1
    21    31    34    1
    22    31    39    1
    23    32    35    1
    24    32    40    1
    25    41    43   ar
    26    15    19    2
    27    42    43   ar
    28    16    22    2
    29    17    12    1
    30    17    19   ar
    31    17    20   ar
    32    18    19   ar
    33    18    22   ar
    34    18    23    1
    35     9    10    1
    36     9    11    1
    37    10    12    1
    38    11     5    1
    39    33    34    1
    40    33    35    1
    41    34    36    1
    42    35    37    1
    43    37    43    1
    44    20    21   ar
    45    21    22   ar
@<TRIPOS>MOLECULE
*****
 43 45 0 0 0
SMALL
GASTEIGER

@<TRIPOS>ATOM
      1 P          21.8049   72.5810   -4.8907 P.3     1  UNL1        0.2189
      2 O          21.0178   73.9756   -5.1240 O.co2   1  UNL1       -0.4371
      3 O          23.0073   72.3781   -5.7653 O.2     1  UNL1       -0.5170
      4 O          20.6481   71.4565   -5.0148 O.3     1  UNL1       -0.3112
      5 C          20.1300   70.8856   -3.8273 C.3     1  UNL1        0.1811
      6 O          18.2103   71.6829   -5.0343 O.3     1  UNL1       -0.3308
      7 O          16.5572   70.3114   -2.9420 O.3     1  UNL1       -0.3794
      8 O          16.4589   68.5545   -5.0253 O.3     1  UNL1       -0.3779
      9 C          17.8008   69.9102   -3.5175 C.3     1  UNL1        0.1713
     10 C          17.5859   69.3999   -4.9266 C.3     1  UNL1        0.1895
     11 C          18.6337   71.1623   -3.7556 C.3     1  UNL1        0.1764
     12 C          17.4179   70.6920   -5.7078 C.3     1  UNL1        0.2383
     13 H          16.0076   69.5280   -2.7807 H       1  UNL1        0.2105
     14 H          16.6151   67.7461   -4.5115 H       1  UNL1        0.2106
     15 O          15.7102   70.4863   -7.9478 O.2     1  UNL1       -0.2464
     16 O          19.2684   70.2469  -10.8677 O.2     1  UNL1       -0.2670
     17 N          17.8714   70.5748   -7.0648 N.ar    1  UNL1       -0.2551
     18 N          17.4840   70.3662   -9.3999 N.ar    1  UNL1       -0.2743
     19 C          16.9309   70.4773   -8.1174 C.ar    1  UNL1        0.3323
     20 C          19.2329   70.5590   -7.3421 C.ar    1  UNL1        0.0869
     21 C          19.7451   70.4527   -8.5698 C.ar    1  UNL1        0.0795
     22 C          18.8305   70.3454   -9.7254 C.ar    1  UNL1        0.2626
     23 H          16.8488   70.2950  -10.1488 H       1  UNL1        0.1734
     24 O          22.1212   72.6035   -3.3057 O.3     1  UNL1       -0.2703
     25 P          23.4655   72.2358   -2.4863 P.3     1  UNL1        0.2208
     26 O          24.3811   73.5587   -2.6651 O.co2   1  UNL1       -0.4371
     27 O          24.1265   70.9620   -2.9272 O.2     1  UNL1       -0.5170
     28 O          23.0186   72.2565   -0.9363 O.3     1  UNL1       -0.2858
     29 O          24.3084   71.0205    0.6187 O.3     1  UNL1       -0.3226
     30 O          20.8704   71.7681    2.7841 O.3     1  UNL1       -0.3794
     31 O          20.7103   70.9975   -0.0292 O.3     1  UNL1       -0.3775
     32 O          23.2978   73.2695    3.3359 O.3     1  UNL1       -0.3792
     33 C          21.8875   72.0382    1.8194 C.3     1  UNL1        0.1718
     34 C          21.8930   70.9363    0.7596 C.3     1  UNL1        0.1968
     35 C          23.2319   72.0816    2.5491 C.3     1  UNL1        0.1723
     36 C          23.1103   71.0651   -0.1572 C.3     1  UNL1        0.2706
     37 C          24.3993   72.0819    1.5665 C.3     1  UNL1        0.1830
     38 H          20.0067   71.7358    2.3433 H       1  UNL1        0.2105
     39 H          19.9339   70.9167    0.5462 H       1  UNL1        0.2106
     40 H          22.5601   73.2817    3.9655 H       1  UNL1        0.2106
     41 O          26.2115   72.9303    2.7903 O.co2   1  UNL1       -0.5466
     42 O          26.1979   70.6891    2.3707 O.co2   1  UNL1       -0.5466
     43 C          25.6853   71.7937    2.2704 C.2     1  UNL1        0.0799
@<TRIPOS>UNITY_ATOM_ATTR
2 1
charge -1
26 1
charge -1
41 1
charge -1
@<TRIPOS>BOND
     1     1     4    1
     2     1    24    1
     3     1     2    1
     4     1     3    2
     5    25    28    1
     6    25    24    1
     7    25    26    1
     8    25    27    2
     9     6    11    1
    10     6    12    1
    11    29    36    1
    12    29    37    1
    13     7     9    1
    14     7    13    1
    15     8    10    1
    16     8    14    1
    17     4     5    1
    18    28    36    1
    19    30    33    1
    20    30    38    1
    21    31    34    1
    22    31    39    1
    23    32    35    1
    24    32    40    1
    25    41    43   ar
    26    15    19    2
    27    42    43   ar
    28    16    22    2
    29    17    12    1
    30    17    19   ar
    31    17    20   ar
    32    18    19   ar
    33    18    22   ar
    34    18    23    1
    35     9    10    1
    36     9    11    1
    37    10    12    1
    38    11     5    1
    39    33    34    1
    40    33    35    1
    41    34    36    1
    42    35    37    1
    43    37    43    1
    44    20    21   ar
    45    21    22   ar
@<TRIPOS>MOLECULE
*****
 43 45 0 0 0
SMALL
GASTEIGER

@<TRIPOS>ATOM
      1 P          21.7738   72.1537   -5.6843 P.3     1  UNL1        0.2189
      2 O          20.6583   73.3042   -5.4586 O.co2   1  UNL1       -0.4371
      3 O          23.1182   72.6528   -6.1263 O.2     1  UNL1       -0.5170
      4 O          21.0521   71.1029   -6.6806 O.3     1  UNL1       -0.3112
      5 C          20.3508   71.6071   -7.8024 C.3     1  UNL1        0.1811
      6 O          18.9486   69.7085   -7.3477 O.3     1  UNL1       -0.3308
      7 O          18.0104   69.9566  -10.1849 O.3     1  UNL1       -0.3794
      8 O          15.9760   71.1090   -8.7817 O.3     1  UNL1       -0.3779
      9 C          18.3576   70.9828   -9.2550 C.3     1  UNL1        0.1713
     10 C          17.2689   71.1373   -8.2142 C.3     1  UNL1        0.1895
     11 C          19.5284   70.4832   -8.4196 C.3     1  UNL1        0.1764
     12 C          17.5335   69.9512   -7.3026 C.3     1  UNL1        0.2383
     13 H          17.2643   70.2528  -10.7301 H       1  UNL1        0.2105
     14 H          15.8566   71.8844   -9.3530 H       1  UNL1        0.2106
     15 O          16.0408   68.1631   -5.7054 O.2     1  UNL1       -0.2464
     16 O          16.1066   71.0382   -2.1036 O.2     1  UNL1       -0.2670
     17 N          17.1468   70.2072   -5.9440 N.ar    1  UNL1       -0.2551
     18 N          16.0741   69.5972   -3.9134 N.ar    1  UNL1       -0.2743
     19 C          16.3971   69.2428   -5.2298 C.ar    1  UNL1        0.3323
     20 C          17.5106   71.4007   -5.3325 C.ar    1  UNL1        0.0869
     21 C          17.1955   71.7244   -4.0768 C.ar    1  UNL1        0.0795
     22 C          16.4128   70.7721   -3.2619 C.ar    1  UNL1        0.2626
     23 H          15.5508   68.9425   -3.3968 H       1  UNL1        0.1734
     24 O          21.7780   71.3700   -4.2705 O.3     1  UNL1       -0.2703
     25 P          22.6304   71.6214   -2.9201 P.3     1  UNL1        0.2208
     26 O          24.0993   71.0568   -3.2995 O.co2   1  UNL1       -0.4371
     27 O          22.0302   71.0056   -1.6894 O.2     1  UNL1       -0.5170
     28 O          22.8162   73.2221   -2.8453 O.3     1  UNL1       -0.2858
     29 O          24.5709   74.6743   -3.4942 O.3     1  UNL1       -0.3226
     30 O          23.2245   76.4782   -0.0299 O.3     1  UNL1       -0.3794
     31 O          23.5067   73.5740   -0.1741 O.3     1  UNL1       -0.3775
     32 O          22.5471   77.6077   -2.6215 O.3     1  UNL1       -0.3792
     33 C          23.1093   75.7199   -1.2340 C.3     1  UNL1        0.1718
     34 C          24.0050   74.4838   -1.1480 C.3     1  UNL1        0.1968
     35 C          23.5443   76.6125   -2.3984 C.3     1  UNL1        0.1723
     36 C          24.0861   73.7720   -2.4991 C.3     1  UNL1        0.2706
     37 C          23.7242   75.8062   -3.6814 C.3     1  UNL1        0.1830
     38 H          22.9533   75.9312    0.7241 H       1  UNL1        0.2105
     39 H          23.4523   74.0192    0.6857 H       1  UNL1        0.2106
     40 H          22.4228   78.1279   -1.8123 H       1  UNL1        0.2106
     41 O          24.7256   75.8454   -5.8021 O.co2   1  UNL1       -0.5466
     42 O          24.7660   77.7805   -4.5969 O.co2   1  UNL1       -0.5466
     43 C          24.4544   76.6046   -4.7117 C.2     1  UNL1        0.0799
@<TRIPOS>UNITY_ATOM_ATTR
2 1
charge -1
26 1
charge -1
41 1
charge -1
@<TRIPOS>BOND
     1     1     4    1
     2     1    24    1
     3     1     2    1
     4     1     3    2
     5    25    28    1
     6    25    24    1
     7    25    26    1
     8    25    27    2
     9     6    11    1
    10     6    12    1
    11    29    36    1
    12    29    37    1
    13     7     9    1
    14     7    13    1
    15     8    10    1
    16     8    14    1
    17     4     5    1
    18    28    36    1
    19    30    33    1
    20    30    38    1
    21    31    34    1
    22    31    39    1
    23    32    35    1
    24    32    40    1
    25    41    43   ar
    26    15    19    2
    27    42    43   ar
    28    16    22    2
    29    17    12    1
    30    17    19   ar
    31    17    20   ar
    32    18    19   ar
    33    18    22   ar
    34    18    23    1
    35     9    10    1
    36     9    11    1
    37    10    12    1
    38    11     5    1
    39    33    34    1
    40    33    35    1
    41    34    36    1
    42    35    37    1
    43    37    43    1
    44    20    21   ar
    45    21    22   ar
@<TRIPOS>MOLECULE
*****
 43 45 0 0 0
SMALL
GASTEIGER

@<TRIPOS>ATOM
      1 P          21.8813   72.2801   -3.2058 P.3     1  UNL1        0.2189
      2 O          22.3934   73.7068   -3.7728 O.co2   1  UNL1       -0.4371
      3 O          22.7727   71.1154   -3.5232 O.2     1  UNL1       -0.5170
      4 O          20.3609   72.1696   -3.7482 O.3     1  UNL1       -0.3112
      5 C          19.6306   70.9874   -3.4770 C.3     1  UNL1        0.1811
      6 O          17.8412   71.8748   -4.8142 O.3     1  UNL1       -0.3308
      7 O          15.9823   70.4847   -2.9160 O.3     1  UNL1       -0.3794
      8 O          16.0181   68.7973   -5.0578 O.3     1  UNL1       -0.3779
      9 C          17.2600   70.0676   -3.3976 C.3     1  UNL1        0.1713
     10 C          17.1533   69.6077   -4.8361 C.3     1  UNL1        0.1895
     11 C          18.1411   71.3030   -3.5226 C.3     1  UNL1        0.1764
     12 C          17.0847   70.9277   -5.5850 C.3     1  UNL1        0.2383
     13 H          15.4016   69.7123   -2.8280 H       1  UNL1        0.2105
     14 H          16.1098   67.9692   -4.5601 H       1  UNL1        0.2106
     15 O          15.6318   70.2110   -7.8984 O.2     1  UNL1       -0.2464
     16 O          19.3532   70.6255  -10.5860 O.2     1  UNL1       -0.2670
     17 N          17.6491   70.8406   -6.9021 N.ar    1  UNL1       -0.2551
     18 N          17.4869   70.4171   -9.2346 N.ar    1  UNL1       -0.2743
     19 C          16.8324   70.4714   -7.9969 C.ar    1  UNL1        0.3323
     20 C          18.9958   71.1205   -7.0995 C.ar    1  UNL1        0.0869
     21 C          19.6055   71.0646   -8.2852 C.ar    1  UNL1        0.0795
     22 C          18.8236   70.6860   -9.4805 C.ar    1  UNL1        0.2626
     23 H          16.9393   70.1604  -10.0115 H       1  UNL1        0.1734
     24 O          21.6842   72.5666   -1.6273 O.3     1  UNL1       -0.2703
     25 P          21.9445   71.6274   -0.3374 P.3     1  UNL1        0.2208
     26 O          23.4276   71.0361   -0.6037 O.co2   1  UNL1       -0.4371
     27 O          20.8918   70.5801   -0.1157 O.2     1  UNL1       -0.5170
     28 O          22.1315   72.6587    0.8889 O.3     1  UNL1       -0.2858
     29 O          21.3331   74.7467    1.6712 O.3     1  UNL1       -0.3226
     30 O          25.4236   75.3153    1.7828 O.3     1  UNL1       -0.3794
     31 O          24.1796   73.9497   -0.4803 O.3     1  UNL1       -0.3775
     32 O          23.9473   74.8506    4.2436 O.3     1  UNL1       -0.3792
     33 C          24.2088   74.5700    1.8650 C.3     1  UNL1        0.1718
     34 C          23.4666   74.6525    0.5309 C.3     1  UNL1        0.1968
     35 C          23.3586   75.1735    2.9852 C.3     1  UNL1        0.1723
     36 C          22.0604   74.0632    0.6498 C.3     1  UNL1        0.2706
     37 C          21.9338   74.6278    2.9589 C.3     1  UNL1        0.1830
     38 H          25.9803   74.9499    1.0773 H       1  UNL1        0.2105
     39 H          25.0729   74.3182   -0.5609 H       1  UNL1        0.2106
     40 H          24.8546   75.1923    4.2733 H       1  UNL1        0.2106
     41 O          21.1210   75.0490    5.1183 O.co2   1  UNL1       -0.5466
     42 O          20.3203   76.3582    3.4319 O.co2   1  UNL1       -0.5466
     43 C          21.0352   75.4487    3.8254 C.2     1  UNL1        0.0799
@<TRIPOS>UNITY_ATOM_ATTR
2 1
charge -1
26 1
charge -1
41 1
charge -1
@<TRIPOS>BOND
     1     1     4    1
     2     1    24    1
     3     1     2    1
     4     1     3    2
     5    25    28    1
     6    25    24    1
     7    25    26    1
     8    25    27    2
     9     6    11    1
    10     6    12    1
    11    29    36    1
    12    29    37    1
    13     7     9    1
    14     7    13    1
    15     8    10    1
    16     8    14    1
    17     4     5    1
    18    28    36    1
    19    30    33    1
    20    30    38    1
    21    31    34    1
    22    31    39    1
    23    32    35    1
    24    32    40    1
    25    41    43   ar
    26    15    19    2
    27    42    43   ar
    28    16    22    2
    29    17    12    1
    30    17    19   ar
    31    17    20   ar
    32    18    19   ar
    33    18    22   ar
    34    18    23    1
    35     9    10    1
    36     9    11    1
    37    10    12    1
    38    11     5    1
    39    33    34    1
    40    33    35    1
    41    34    36    1
    42    35    37    1
    43    37    43    1
    44    20    21   ar
    45    21    22   ar
@<TRIPOS>MOLECULE
*****
 43 45 0 0 0
SMALL
GASTEIGER

@<TRIPOS>ATOM
      1 P          23.0362   71.5957   -2.5505 P.3     1  UNL1        0.2189
      2 O          23.1961   73.1375   -2.0855 O.co2   1  UNL1       -0.4371
      3 O          24.2505   71.0011   -3.2013 O.2     1  UNL1       -0.5170
      4 O          21.6889   71.5979   -3.4465 O.3     1  UNL1       -0.3112
      5 C          21.5394   72.5951   -4.4403 C.3     1  UNL1        0.1811
      6 O          20.6294   70.7201   -5.6377 O.3     1  UNL1       -0.3308
      7 O          21.0563   72.3391   -8.1253 O.3     1  UNL1       -0.3794
      8 O          18.3861   72.6464   -7.6653 O.3     1  UNL1       -0.3779
      9 C          20.6634   72.7710   -6.8223 C.3     1  UNL1        0.1713
     10 C          19.2224   72.3904   -6.5564 C.3     1  UNL1        0.1895
     11 C          21.4104   71.9236   -5.8014 C.3     1  UNL1        0.1764
     12 C          19.3403   70.9086   -6.2427 C.3     1  UNL1        0.2383
     13 H          20.5919   72.8661   -8.7947 H       1  UNL1        0.2105
     14 H          18.3435   73.6030   -7.8240 H       1  UNL1        0.2106
     15 O          16.7949   69.9682   -7.0258 O.2     1  UNL1       -0.2464
     16 O          15.5299   69.2097   -2.6591 O.2     1  UNL1       -0.2670
     17 N          18.3264   70.4591   -5.3311 N.ar    1  UNL1       -0.2551
     18 N          16.1669   69.5922   -4.8501 N.ar    1  UNL1       -0.2743
     19 C          17.0813   70.0062   -5.8277 C.ar    1  UNL1        0.3323
     20 C          18.5703   70.4681   -3.9631 C.ar    1  UNL1        0.0869
     21 C          17.6890   70.0703   -3.0435 C.ar    1  UNL1        0.0795
     22 C          16.3635   69.5834   -3.4787 C.ar    1  UNL1        0.2626
     23 H          15.2922   69.2746   -5.1716 H       1  UNL1        0.1734
     24 O          22.5684   70.8538   -1.1927 O.3     1  UNL1       -0.2703
     25 P          21.8109   71.4192    0.1189 P.3     1  UNL1        0.2208
     26 O          21.3542   70.0721    0.8916 O.co2   1  UNL1       -0.4371
     27 O          20.6891   72.3710   -0.1803 O.2     1  UNL1       -0.5170
     28 O          22.9859   72.0362    1.0360 O.3     1  UNL1       -0.2858
     29 O          24.6990   71.3966    2.5411 O.3     1  UNL1       -0.3226
     30 O          22.6211   74.1871    4.7690 O.3     1  UNL1       -0.3794
     31 O          21.1896   72.2202    3.1515 O.3     1  UNL1       -0.3775
     32 O          25.1774   74.8848    3.5734 O.3     1  UNL1       -0.3792
     33 C          23.1418   73.5960    3.5784 C.3     1  UNL1        0.1718
     34 C          22.5855   72.1803    3.4245 C.3     1  UNL1        0.1968
     35 C          24.6670   73.5587    3.6969 C.3     1  UNL1        0.1723
     36 C          23.2932   71.4345    2.2923 C.3     1  UNL1        0.2706
     37 C          25.2895   72.6929    2.6054 C.3     1  UNL1        0.1830
     38 H          21.6530   74.2215    4.7165 H       1  UNL1        0.2105
     39 H          20.7343   72.6922    3.8658 H       1  UNL1        0.2106
     40 H          24.7889   75.4463    4.2624 H       1  UNL1        0.2106
     41 O          27.0319   71.1232    2.5626 O.co2   1  UNL1       -0.5466
     42 O          27.5081   73.1826    3.4177 O.co2   1  UNL1       -0.5466
     43 C          26.7202   72.3947    2.9163 C.2     1  UNL1        0.0799
@<TRIPOS>UNITY_ATOM_ATTR
2 1
charge -1
26 1
charge -1
41 1
charge -1
@<TRIPOS>BOND
     1     1     4    1
     2     1    24    1
     3     1     2    1
     4     1     3    2
     5    25    28    1
     6    25    24    1
     7    25    26    1
     8    25    27    2
     9     6    11    1
    10     6    12    1
    11    29    36    1
    12    29    37    1
    13     7     9    1
    14     7    13    1
    15     8    10    1
    16     8    14    1
    17     4     5    1
    18    28    36    1
    19    30    33    1
    20    30    38    1
    21    31    34    1
    22    31    39    1
    23    32    35    1
    24    32    40    1
    25    41    43   ar
    26    15    19    2
    27    42    43   ar
    28    16    22    2
    29    17    12    1
    30    17    19   ar
    31    17    20   ar
    32    18    19   ar
    33    18    22   ar
    34    18    23    1
    35     9    10    1
    36     9    11    1
    37    10    12    1
    38    11     5    1
    39    33    34    1
    40    33    35    1
    41    34    36    1
    42    35    37    1
    43    37    43    1
    44    20    21   ar
    45    21    22   ar
@<TRIPOS>MOLECULE
*****
 43 45 0 0 0
SMALL
GASTEIGER

@<TRIPOS>ATOM
      1 P          23.4926   73.5755   -4.1705 P.3     1  UNL1        0.2189
      2 O          22.7449   74.9944   -4.3860 O.co2   1  UNL1       -0.4371
      3 O          24.9859   73.6584   -4.0481 O.2     1  UNL1       -0.5170
      4 O          22.9368   72.6558   -5.3801 O.3     1  UNL1       -0.3112
      5 C          21.5630   72.3137   -5.3931 C.3     1  UNL1        0.1811
      6 O          20.4928   70.3562   -6.2878 O.3     1  UNL1       -0.3308
      7 O          20.6296   71.7265   -8.9515 O.3     1  UNL1       -0.3794
      8 O          18.0393   72.1352   -8.2035 O.3     1  UNL1       -0.3779
      9 C          20.4040   72.2866   -7.6577 C.3     1  UNL1        0.1713
     10 C          19.0022   71.9649   -7.1845 C.3     1  UNL1        0.1895
     11 C          21.2610   71.5214   -6.6586 C.3     1  UNL1        0.1764
     12 C          19.1414   70.5165   -6.7478 C.3     1  UNL1        0.2383
     13 H          20.0925   72.1992   -9.6070 H       1  UNL1        0.2105
     14 H          17.9881   73.0735   -8.4463 H       1  UNL1        0.2106
     15 O          16.4393   69.7813   -7.1144 O.2     1  UNL1       -0.2464
     16 O          15.7838   69.2336   -2.5851 O.2     1  UNL1       -0.2670
     17 N          18.2420   70.1767   -5.6817 N.ar    1  UNL1       -0.2551
     18 N          16.1151   69.5102   -4.8581 N.ar    1  UNL1       -0.2743
     19 C          16.9037   69.8217   -5.9735 C.ar    1  UNL1        0.3323
     20 C          18.6877   70.1956   -4.3657 C.ar    1  UNL1        0.0869
     21 C          17.9242   69.8961   -3.3130 C.ar    1  UNL1        0.0795
     22 C          16.5132   69.5155   -3.5311 C.ar    1  UNL1        0.2626
     23 H          15.1791   69.2620   -5.0360 H       1  UNL1        0.1734
     24 O          22.7438   72.9637   -2.8752 O.3     1  UNL1       -0.2703
     25 P          22.8638   71.5165   -2.1648 P.3     1  UNL1        0.2208
     26 O          24.2097   70.8956   -2.8155 O.co2   1  UNL1       -0.4371
     27 O          21.6464   70.6517   -2.3194 O.2     1  UNL1       -0.5170
     28 O          23.2636   71.8427   -0.6363 O.3     1  UNL1       -0.2858
     29 O          24.6183   70.8427    1.0292 O.3     1  UNL1       -0.3226
     30 O          21.2721   71.9175    3.2008 O.3     1  UNL1       -0.3794
     31 O          20.9964   70.7422    0.5405 O.3     1  UNL1       -0.3775
     32 O          23.7185   73.4718    3.4251 O.3     1  UNL1       -0.3792
     33 C          22.2480   72.0377    2.1658 C.3     1  UNL1        0.1718
     34 C          22.2109   70.7919    1.2803 C.3     1  UNL1        0.1968
     35 C          23.6215   72.1814    2.8252 C.3     1  UNL1        0.1723
     36 C          23.3890   70.7785    0.3052 C.3     1  UNL1        0.2706
     37 C          24.7471   72.0314    1.8059 C.3     1  UNL1        0.1830
     38 H          20.3910   71.8249    2.8055 H       1  UNL1        0.2105
     39 H          20.2447   70.7507    1.1530 H       1  UNL1        0.2106
     40 H          23.0074   73.5801    4.0759 H       1  UNL1        0.2106
     41 O          26.4262   72.9742    3.1451 O.co2   1  UNL1       -0.5466
     42 O          26.7221   70.8159    2.4718 O.co2   1  UNL1       -0.5466
     43 C          26.0615   71.8437    2.4910 C.2     1  UNL1        0.0799
@<TRIPOS>UNITY_ATOM_ATTR
2 1
charge -1
26 1
charge -1
41 1
charge -1
@<TRIPOS>BOND
     1     1     4    1
     2     1    24    1
     3     1     2    1
     4     1     3    2
     5    25    28    1
     6    25    24    1
     7    25    26    1
     8    25    27    2
     9     6    11    1
    10     6    12    1
    11    29    36    1
    12    29    37    1
    13     7     9    1
    14     7    13    1
    15     8    10    1
    16     8    14    1
    17     4     5    1
    18    28    36    1
    19    30    33    1
    20    30    38    1
    21    31    34    1
    22    31    39    1
    23    32    35    1
    24    32    40    1
    25    41    43   ar
    26    15    19    2
    27    42    43   ar
    28    16    22    2
    29    17    12    1
    30    17    19   ar
    31    17    20   ar
    32    18    19   ar
    33    18    22   ar
    34    18    23    1
    35     9    10    1
    36     9    11    1
    37    10    12    1
    38    11     5    1
    39    33    34    1
    40    33    35    1
    41    34    36    1
    42    35    37    1
    43    37    43    1
    44    20    21   ar
    45    21    22   ar
@<TRIPOS>MOLECULE
*****
 43 45 0 0 0
SMALL
GASTEIGER

@<TRIPOS>ATOM
      1 P          23.2706   72.2503   -3.6279 P.3     1  UNL1        0.2189
      2 O          23.9086   73.1563   -4.8073 O.co2   1  UNL1       -0.4371
      3 O          24.0766   71.0421   -3.2506 O.2     1  UNL1       -0.5170
      4 O          21.7622   71.9583   -4.1351 O.3     1  UNL1       -0.3112
      5 C          21.1194   70.7747   -3.6989 C.3     1  UNL1        0.1811
      6 O          19.0517   71.6676   -4.5385 O.3     1  UNL1       -0.3308
      7 O          17.7306   70.2763   -2.2340 O.3     1  UNL1       -0.3794
      8 O          17.2200   68.5934   -4.3180 O.3     1  UNL1       -0.3779
      9 C          18.8441   69.8583   -3.0239 C.3     1  UNL1        0.1713
     10 C          18.3760   69.4016   -4.3894 C.3     1  UNL1        0.1895
     11 C          19.6674   71.0926   -3.3656 C.3     1  UNL1        0.1764
     12 C          18.1229   70.7233   -5.0943 C.3     1  UNL1        0.2383
     13 H          17.1895   69.5045   -2.0032 H       1  UNL1        0.2105
     14 H          17.4331   67.7641   -3.8611 H       1  UNL1        0.2106
     15 O          16.1781   69.8558   -6.9495 O.2     1  UNL1       -0.2464
     16 O          19.0495   70.4363  -10.5079 O.2     1  UNL1       -0.2670
     17 N          18.3356   70.6380   -6.5115 N.ar    1  UNL1       -0.2551
     18 N          17.6104   70.1448   -8.7199 N.ar    1  UNL1       -0.2743
     19 C          17.2927   70.1894   -7.3560 C.ar    1  UNL1        0.3323
     20 C          19.5644   70.9978   -7.0513 C.ar    1  UNL1        0.0869
     21 C          19.8523   70.9501   -8.3534 C.ar    1  UNL1        0.0795
     22 C          18.8180   70.4917   -9.3039 C.ar    1  UNL1        0.2626
     23 H          16.9008   69.8337   -9.3274 H       1  UNL1        0.1734
     24 O          23.0519   73.3144   -2.4309 O.3     1  UNL1       -0.2703
     25 P          22.3397   73.1574   -0.9881 P.3     1  UNL1        0.2208
     26 O          22.4003   71.5626   -0.7172 O.co2   1  UNL1       -0.4371
     27 O          20.9600   73.7450   -0.9151 O.2     1  UNL1       -0.5170
     28 O          23.3923   73.7885    0.0589 O.3     1  UNL1       -0.2858
     29 O          23.9041   73.4014    2.3386 O.3     1  UNL1       -0.3226
     30 O          21.6734   70.0538    1.3976 O.3     1  UNL1       -0.3794
     31 O          23.6751   71.0726   -0.4705 O.3     1  UNL1       -0.3775
     32 O          20.4937   72.2007    2.9628 O.3     1  UNL1       -0.3792
     33 C          22.0677   71.4232    1.3126 C.3     1  UNL1        0.1718
     34 C          23.5305   71.5085    0.8763 C.3     1  UNL1        0.1968
     35 C          21.8870   72.0540    2.6952 C.3     1  UNL1        0.1723
     36 C          24.0543   72.9403    0.9954 C.3     1  UNL1        0.2706
     37 C          22.5456   73.4284    2.7708 C.3     1  UNL1        0.1830
     38 H          21.7797   69.6321    0.5303 H       1  UNL1        0.2105
     39 H          23.3443   70.1648   -0.5534 H       1  UNL1        0.2106
     40 H          20.0626   71.3330    2.9176 H       1  UNL1        0.2106
     41 O          21.4473   74.2991    4.6515 O.co2   1  UNL1       -0.5466
     42 O          23.6823   73.8927    4.8477 O.co2   1  UNL1       -0.5466
     43 C          22.6536   73.8876    4.1884 C.2     1  UNL1        0.0799
@<TRIPOS>UNITY_ATOM_ATTR
2 1
charge -1
26 1
charge -1
41 1
charge -1
@<TRIPOS>BOND
     1     1     4    1
     2     1    24    1
     3     1     2    1
     4     1     3    2
     5    25    28    1
     6    25    24    1
     7    25    26    1
     8    25    27    2
     9     6    11    1
    10     6    12    1
    11    29    36    1
    12    29    37    1
    13     7     9    1
    14     7    13    1
    15     8    10    1
    16     8    14    1
    17     4     5    1
    18    28    36    1
    19    30    33    1
    20    30    38    1
    21    31    34    1
    22    31    39    1
    23    32    35    1
    24    32    40    1
    25    41    43   ar
    26    15    19    2
    27    42    43   ar
    28    16    22    2
    29    17    12    1
    30    17    19   ar
    31    17    20   ar
    32    18    19   ar
    33    18    22   ar
    34    18    23    1
    35     9    10    1
    36     9    11    1
    37    10    12    1
    38    11     5    1
    39    33    34    1
    40    33    35    1
    41    34    36    1
    42    35    37    1
    43    37    43    1
    44    20    21   ar
    45    21    22   ar
@<TRIPOS>MOLECULE
*****
 43 45 0 0 0
SMALL
GASTEIGER

@<TRIPOS>ATOM
      1 P          21.0775   71.7216   -2.9537 P.3     1  UNL1        0.2189
      2 O          21.5276   70.6708   -1.8082 O.co2   1  UNL1       -0.4371
      3 O          20.2081   72.8470   -2.4748 O.2     1  UNL1       -0.5170
      4 O          20.4419   70.7862   -4.1109 O.3     1  UNL1       -0.3112
      5 C          19.5433   69.7595   -3.7328 C.3     1  UNL1        0.1811
      6 O          17.9553   71.1098   -4.9296 O.3     1  UNL1       -0.3308
      7 O          15.8478   69.7787   -3.2629 O.3     1  UNL1       -0.3794
      8 O          15.6708   68.4370   -5.6303 O.3     1  UNL1       -0.3779
      9 C          17.0548   69.2344   -3.7971 C.3     1  UNL1        0.1713
     10 C          16.9146   69.0118   -5.2881 C.3     1  UNL1        0.1895
     11 C          18.1252   70.3156   -3.7357 C.3     1  UNL1        0.1764
     12 C          17.0781   70.4200   -5.8340 C.3     1  UNL1        0.2383
     13 H          15.1489   69.1061   -3.2917 H       1  UNL1        0.2105
     14 H          15.6156   67.5416   -5.2601 H       1  UNL1        0.2106
     15 O          15.5878   70.5037   -8.2316 O.2     1  UNL1       -0.2464
     16 O          19.4026   70.4727  -10.8181 O.2     1  UNL1       -0.2670
     17 N          17.6564   70.4347   -7.1478 N.ar    1  UNL1       -0.2551
     18 N          17.4892   70.4871   -9.5176 N.ar    1  UNL1       -0.2743
     19 C          16.8187   70.4772   -8.2874 C.ar    1  UNL1        0.3323
     20 C          19.0376   70.4088   -7.2980 C.ar    1  UNL1        0.0869
     21 C          19.6622   70.4189   -8.4772 C.ar    1  UNL1        0.0795
     22 C          18.8600   70.4618   -9.7173 C.ar    1  UNL1        0.2626
     23 H          16.9270   70.5145  -10.3253 H       1  UNL1        0.1734
     24 O          22.4870   72.1854   -3.5948 O.3     1  UNL1       -0.2703
     25 P          23.5050   73.3696   -3.1762 P.3     1  UNL1        0.2208
     26 O          22.5821   74.6969   -3.2585 O.co2   1  UNL1       -0.4371
     27 O          24.7530   73.4315   -4.0083 O.2     1  UNL1       -0.5170
     28 O          23.7621   73.1497   -1.5988 O.3     1  UNL1       -0.2858
     29 O          22.1905   73.1349    0.1728 O.3     1  UNL1       -0.3226
     30 O          25.5757   74.5603    2.0640 O.3     1  UNL1       -0.3794
     31 O          24.8640   75.5034   -0.6078 O.3     1  UNL1       -0.3775
     32 O          24.7168   71.8149    2.4832 O.3     1  UNL1       -0.3792
     33 C          24.8412   73.7916    1.1113 C.3     1  UNL1        0.1718
     34 C          24.0143   74.7261    0.2280 C.3     1  UNL1        0.1968
     35 C          23.9252   72.8364    1.8797 C.3     1  UNL1        0.1723
     36 C          23.0433   73.9336   -0.6483 C.3     1  UNL1        0.2706
     37 C          22.9038   72.1799    0.9553 C.3     1  UNL1        0.1830
     38 H          26.1649   75.1748    1.5987 H       1  UNL1        0.2105
     39 H          25.4829   76.0087   -0.0583 H       1  UNL1        0.2106
     40 H          25.3711   72.2194    3.0739 H       1  UNL1        0.2106
     41 O          21.6132   70.2527    1.3044 O.co2   1  UNL1       -0.5466
     42 O          21.2067   72.0371    2.6644 O.co2   1  UNL1       -0.5466
     43 C          21.8219   71.5181    1.7451 C.2     1  UNL1        0.0799
@<TRIPOS>UNITY_ATOM_ATTR
2 1
charge -1
26 1
charge -1
41 1
charge -1
@<TRIPOS>BOND
     1     1     4    1
     2     1    24    1
     3     1     2    1
     4     1     3    2
     5    25    28    1
     6    25    24    1
     7    25    26    1
     8    25    27    2
     9     6    11    1
    10     6    12    1
    11    29    36    1
    12    29    37    1
    13     7     9    1
    14     7    13    1
    15     8    10    1
    16     8    14    1
    17     4     5    1
    18    28    36    1
    19    30    33    1
    20    30    38    1
    21    31    34    1
    22    31    39    1
    23    32    35    1
    24    32    40    1
    25    41    43   ar
    26    15    19    2
    27    42    43   ar
    28    16    22    2
    29    17    12    1
    30    17    19   ar
    31    17    20   ar
    32    18    19   ar
    33    18    22   ar
    34    18    23    1
    35     9    10    1
    36     9    11    1
    37    10    12    1
    38    11     5    1
    39    33    34    1
    40    33    35    1
    41    34    36    1
    42    35    37    1
    43    37    43    1
    44    20    21   ar
    45    21    22   ar
@<TRIPOS>MOLECULE
*****
 43 45 0 0 0
SMALL
GASTEIGER

@<TRIPOS>ATOM
      1 P          21.9160   72.4969   -5.8025 P.3     1  UNL1        0.2189
      2 O          21.3176   73.9221   -5.3235 O.co2   1  UNL1       -0.4371
      3 O          23.0605   72.5829   -6.7693 O.2     1  UNL1       -0.5170
      4 O          20.6167   71.6849   -6.3225 O.3     1  UNL1       -0.3112
      5 C          20.0516   72.0412   -7.5707 C.3     1  UNL1        0.1811
      6 O          18.8755   69.9891   -7.1427 O.3     1  UNL1       -0.3308
      7 O          18.1037   70.0442  -10.0397 O.3     1  UNL1       -0.3794
      8 O          15.8505   70.9583   -8.8053 O.3     1  UNL1       -0.3779
      9 C          18.2549   71.1292   -9.1241 C.3     1  UNL1        0.1713
     10 C          17.0888   71.1673   -8.1592 C.3     1  UNL1        0.1895
     11 C          19.4218   70.8057   -8.2010 C.3     1  UNL1        0.1764
     12 C          17.4412   70.0480   -7.1943 C.3     1  UNL1        0.2383
     13 H          17.3638   70.2281  -10.6400 H       1  UNL1        0.2105
     14 H          15.6716   71.6975   -9.4082 H       1  UNL1        0.2106
     15 O          16.3386   68.0530   -5.5268 O.2     1  UNL1       -0.2464
     16 O          15.5326   71.0725   -2.1391 O.2     1  UNL1       -0.2670
     17 N          16.9356   70.2852   -5.8718 N.ar    1  UNL1       -0.2551
     18 N          15.9373   69.5590   -3.8415 N.ar    1  UNL1       -0.2743
     19 C          16.4023   69.2136   -5.1173 C.ar    1  UNL1        0.3323
     20 C          16.9726   71.5662   -5.3346 C.ar    1  UNL1        0.0869
     21 C          16.5256   71.8800   -4.1170 C.ar    1  UNL1        0.0795
     22 C          15.9522   70.8183   -3.2641 C.ar    1  UNL1        0.2626
     23 H          15.5596   68.8299   -3.2982 H       1  UNL1        0.1734
     24 O          22.2681   71.7632   -4.4059 O.3     1  UNL1       -0.2703
     25 P          23.5058   71.9620   -3.3850 P.3     1  UNL1        0.2208
     26 O          24.4220   73.0718   -4.1262 O.co2   1  UNL1       -0.4371
     27 O          24.2297   70.6927   -3.0402 O.2     1  UNL1       -0.5170
     28 O          22.8722   72.7363   -2.1195 O.3     1  UNL1       -0.2858
     29 O          22.8406   71.2694   -0.2604 O.3     1  UNL1       -0.3226
     30 O          21.0810   74.6595    1.3139 O.3     1  UNL1       -0.3794
     31 O          20.3895   73.7436   -1.3726 O.3     1  UNL1       -0.3775
     32 O          23.8307   73.9968    1.9852 O.3     1  UNL1       -0.3792
     33 C          21.9620   73.9223    0.4663 C.3     1  UNL1        0.1718
     34 C          21.1476   72.9913   -0.4323 C.3     1  UNL1        0.1968
     35 C          22.9061   73.1112    1.3566 C.3     1  UNL1        0.1723
     36 C          22.0600   72.0241   -1.1880 C.3     1  UNL1        0.2706
     37 C          23.6897   72.0828    0.5462 C.3     1  UNL1        0.1830
     38 H          20.4714   75.1829    0.7700 H       1  UNL1        0.2105
     39 H          19.8085   74.3596   -0.9001 H       1  UNL1        0.2106
     40 H          23.3447   74.6566    2.5042 H       1  UNL1        0.2106
     41 O          23.6593   70.9618    2.6063 O.co2   1  UNL1       -0.5466
     42 O          25.3696   70.4711    1.1803 O.co2   1  UNL1       -0.5466
     43 C          24.3497   71.0894    1.4461 C.2     1  UNL1        0.0799
@<TRIPOS>UNITY_ATOM_ATTR
2 1
charge -1
26 1
charge -1
41 1
charge -1
@<TRIPOS>BOND
     1     1     4    1
     2     1    24    1
     3     1     2    1
     4     1     3    2
     5    25    28    1
     6    25    24    1
     7    25    26    1
     8    25    27    2
     9     6    11    1
    10     6    12    1
    11    29    36    1
    12    29    37    1
    13     7     9    1
    14     7    13    1
    15     8    10    1
    16     8    14    1
    17     4     5    1
    18    28    36    1
    19    30    33    1
    20    30    38    1
    21    31    34    1
    22    31    39    1
    23    32    35    1
    24    32    40    1
    25    41    43   ar
    26    15    19    2
    27    42    43   ar
    28    16    22    2
    29    17    12    1
    30    17    19   ar
    31    17    20   ar
    32    18    19   ar
    33    18    22   ar
    34    18    23    1
    35     9    10    1
    36     9    11    1
    37    10    12    1
    38    11     5    1
    39    33    34    1
    40    33    35    1
    41    34    36    1
    42    35    37    1
    43    37    43    1
    44    20    21   ar
    45    21    22   ar
@<TRIPOS>MOLECULE
*****
 43 45 0 0 0
SMALL
GASTEIGER

@<TRIPOS>ATOM
      1 P          21.8246   72.3770   -5.6195 P.3     1  UNL1        0.2189
      2 O          21.0748   73.7457   -5.1912 O.co2   1  UNL1       -0.4371
      3 O          23.0601   72.5646   -6.4502 O.2     1  UNL1       -0.5170
      4 O          20.6534   71.4869   -6.2934 O.3     1  UNL1       -0.3112
      5 C          20.1410   71.8848   -7.5518 C.3     1  UNL1        0.1811
      6 O          18.8748   69.8807   -7.1542 O.3     1  UNL1       -0.3308
      7 O          18.0613   70.0452  -10.0356 O.3     1  UNL1       -0.3794
      8 O          15.8741   71.0339   -8.7416 O.3     1  UNL1       -0.3779
      9 C          18.2787   71.0985   -9.0965 C.3     1  UNL1        0.1713
     10 C          17.1309   71.1675   -8.1115 C.3     1  UNL1        0.1895
     11 C          19.4430   70.6968   -8.2013 C.3     1  UNL1        0.1764
     12 C          17.4444   70.0089   -7.1802 C.3     1  UNL1        0.2383
     13 H          17.3218   70.2791  -10.6188 H       1  UNL1        0.2105
     14 H          15.7214   71.7958   -9.3232 H       1  UNL1        0.2106
     15 O          16.1619   68.0598   -5.5887 O.2     1  UNL1       -0.2464
     16 O          15.6722   70.9936   -2.0678 O.2     1  UNL1       -0.2670
     17 N          16.9715   70.2365   -5.8440 N.ar    1  UNL1       -0.2551
     18 N          15.9183   69.5232   -3.8370 N.ar    1  UNL1       -0.2743
     19 C          16.3405   69.1900   -5.1307 C.ar    1  UNL1        0.3323
     20 C          17.1359   71.4833   -5.2531 C.ar    1  UNL1        0.0869
     21 C          16.7283   71.7859   -4.0189 C.ar    1  UNL1        0.0795
     22 C          16.0589   70.7489   -3.2066 C.ar    1  UNL1        0.2626
     23 H          15.4744   68.8114   -3.3216 H       1  UNL1        0.1734
     24 O          22.0715   71.6397   -4.2024 O.3     1  UNL1       -0.2703
     25 P          23.2281   71.8377   -3.0902 P.3     1  UNL1        0.2208
     26 O          23.7933   73.3216   -3.4046 O.co2   1  UNL1       -0.4371
     27 O          24.2764   70.7630   -3.0939 O.2     1  UNL1       -0.5170
     28 O          22.4324   71.9921   -1.6954 O.3     1  UNL1       -0.2858
     29 O          22.9156   73.9605   -0.4702 O.3     1  UNL1       -0.3226
     30 O          20.7594   71.7633    2.2851 O.3     1  UNL1       -0.3794
     31 O          22.7714   70.4699    0.6077 O.3     1  UNL1       -0.3775
     32 O          19.5177   74.0056    0.9135 O.3     1  UNL1       -0.3792
     33 C          21.1306   72.2171    0.9834 C.3     1  UNL1        0.1718
     34 C          22.5983   71.8776    0.7223 C.3     1  UNL1        0.1968
     35 C          20.9174   73.7316    0.9320 C.3     1  UNL1        0.1723
     36 C          23.0948   72.5465   -0.5602 C.3     1  UNL1        0.2706
     37 C          21.5503   74.3413   -0.3155 C.3     1  UNL1        0.1830
     38 H          20.8867   70.8031    2.3414 H       1  UNL1        0.2105
     39 H          22.4582   70.0390    1.4180 H       1  UNL1        0.2106
     40 H          19.1028   73.6227    1.7022 H       1  UNL1        0.2106
     41 O          21.5063   76.2136    1.0966 O.co2   1  UNL1       -0.5466
     42 O          21.7826   76.5992   -1.1337 O.co2   1  UNL1       -0.5466
     43 C          21.6281   75.8287   -0.1980 C.2     1  UNL1        0.0799
@<TRIPOS>UNITY_ATOM_ATTR
2 1
charge -1
26 1
charge -1
41 1
charge -1
@<TRIPOS>BOND
     1     1     4    1
     2     1    24    1
     3     1     2    1
     4     1     3    2
     5    25    28    1
     6    25    24    1
     7    25    26    1
     8    25    27    2
     9     6    11    1
    10     6    12    1
    11    29    36    1
    12    29    37    1
    13     7     9    1
    14     7    13    1
    15     8    10    1
    16     8    14    1
    17     4     5    1
    18    28    36    1
    19    30    33    1
    20    30    38    1
    21    31    34    1
    22    31    39    1
    23    32    35    1
    24    32    40    1
    25    41    43   ar
    26    15    19    2
    27    42    43   ar
    28    16    22    2
    29    17    12    1
    30    17    19   ar
    31    17    20   ar
    32    18    19   ar
    33    18    22   ar
    34    18    23    1
    35     9    10    1
    36     9    11    1
    37    10    12    1
    38    11     5    1
    39    33    34    1
    40    33    35    1
    41    34    36    1
    42    35    37    1
    43    37    43    1
    44    20    21   ar
    45    21    22   ar
@<TRIPOS>MOLECULE
*****
 43 45 0 0 0
SMALL
GASTEIGER

@<TRIPOS>ATOM
      1 P          23.2261   72.1759   -3.0323 P.3     1  UNL1        0.2189
      2 O          24.3137   72.4795   -4.1915 O.co2   1  UNL1       -0.4371
      3 O          23.6782   71.2102   -1.9765 O.2     1  UNL1       -0.5170
      4 O          21.8956   71.7514   -3.8495 O.3     1  UNL1       -0.3112
      5 C          21.4327   72.6063   -4.8787 C.3     1  UNL1        0.1811
      6 O          20.5525   70.6018   -5.8710 O.3     1  UNL1       -0.3308
      7 O          20.8855   71.9845   -8.5108 O.3     1  UNL1       -0.3794
      8 O          18.2172   72.2652   -8.0236 O.3     1  UNL1       -0.3779
      9 C          20.5061   72.5294   -7.2468 C.3     1  UNL1        0.1713
     10 C          19.0817   72.1388   -6.9140 C.3     1  UNL1        0.1895
     11 C          21.2962   71.8039   -6.1663 C.3     1  UNL1        0.1764
     12 C          19.2471   70.6977   -6.4627 C.3     1  UNL1        0.2383
     13 H          20.3936   72.4325   -9.2172 H       1  UNL1        0.2105
     14 H          18.1448   73.2006   -8.2721 H       1  UNL1        0.2106
     15 O          16.6706   69.7302   -7.0967 O.2     1  UNL1       -0.2464
     16 O          15.5584   69.2472   -2.6499 O.2     1  UNL1       -0.2670
     17 N          18.2642   70.3117   -5.4902 N.ar    1  UNL1       -0.2551
     18 N          16.1188   69.4915   -4.8813 N.ar    1  UNL1       -0.2743
     19 C          16.9998   69.8387   -5.9140 C.ar    1  UNL1        0.3323
     20 C          18.5568   70.4018   -4.1348 C.ar    1  UNL1        0.0869
     21 C          17.7068   70.0670   -3.1621 C.ar    1  UNL1        0.0795
     22 C          16.3641   69.5643   -3.5197 C.ar    1  UNL1        0.2626
     23 H          15.2315   69.1614   -5.1517 H       1  UNL1        0.1734
     24 O          22.8598   73.6514   -2.4830 O.3     1  UNL1       -0.2703
     25 P          23.7593   74.7494   -1.7092 P.3     1  UNL1        0.2208
     26 O          22.6604   75.7920   -1.1384 O.co2   1  UNL1       -0.4371
     27 O          24.8270   75.3786   -2.5566 O.2     1  UNL1       -0.5170
     28 O          24.3088   73.9805   -0.4017 O.3     1  UNL1       -0.2858
     29 O          22.6491   73.3697    1.1736 O.3     1  UNL1       -0.3226
     30 O          26.1235   72.6260    3.2816 O.3     1  UNL1       -0.3794
     31 O          25.8708   75.0327    1.6450 O.3     1  UNL1       -0.3775
     32 O          24.5923   70.4203    2.1674 O.3     1  UNL1       -0.3792
     33 C          25.2996   72.7230    2.1198 C.3     1  UNL1        0.1718
     34 C          24.7956   74.1585    1.9683 C.3     1  UNL1        0.1968
     35 C          24.1221   71.7611    2.2934 C.3     1  UNL1        0.1723
     36 C          23.7314   74.2521    0.8740 C.3     1  UNL1        0.2706
     37 C          23.0460   72.0017    1.2386 C.3     1  UNL1        0.1830
     38 H          26.8787   73.2288    3.1939 H       1  UNL1        0.2105
     39 H          26.5499   74.9782    2.3350 H       1  UNL1        0.2106
     40 H          25.2779   70.2542    2.8331 H       1  UNL1        0.2106
     41 O          21.7582   70.0469    1.0912 O.co2   1  UNL1       -0.5466
     42 O          20.8789   71.7847    2.2770 O.co2   1  UNL1       -0.5466
     43 C          21.7780   71.3017    1.6052 C.2     1  UNL1        0.0799
@<TRIPOS>UNITY_ATOM_ATTR
2 1
charge -1
26 1
charge -1
41 1
charge -1
@<TRIPOS>BOND
     1     1     4    1
     2     1    24    1
     3     1     2    1
     4     1     3    2
     5    25    28    1
     6    25    24    1
     7    25    26    1
     8    25    27    2
     9     6    11    1
    10     6    12    1
    11    29    36    1
    12    29    37    1
    13     7     9    1
    14     7    13    1
    15     8    10    1
    16     8    14    1
    17     4     5    1
    18    28    36    1
    19    30    33    1
    20    30    38    1
    21    31    34    1
    22    31    39    1
    23    32    35    1
    24    32    40    1
    25    41    43   ar
    26    15    19    2
    27    42    43   ar
    28    16    22    2
    29    17    12    1
    30    17    19   ar
    31    17    20   ar
    32    18    19   ar
    33    18    22   ar
    34    18    23    1
    35     9    10    1
    36     9    11    1
    37    10    12    1
    38    11     5    1
    39    33    34    1
    40    33    35    1
    41    34    36    1
    42    35    37    1
    43    37    43    1
    44    20    21   ar
    45    21    22   ar
@<TRIPOS>MOLECULE
*****
 43 45 0 0 0
SMALL
GASTEIGER

@<TRIPOS>ATOM
      1 P          15.6077   71.0786   -2.2157 P.3     1  UNL1        0.2189
      2 O          16.9783   71.8434   -1.8215 O.co2   1  UNL1       -0.4371
      3 O          14.5727   71.9365   -2.8825 O.2     1  UNL1       -0.5170
      4 O          15.1488   70.3679   -0.8365 O.3     1  UNL1       -0.3112
      5 C          14.3672   69.1897   -0.9105 C.3     1  UNL1        0.1811
      6 O          12.1489   68.4488   -0.3557 O.3     1  UNL1       -0.3308
      7 O          11.3735   71.3452   -0.3910 O.3     1  UNL1       -0.3794
      8 O          11.6256   70.8283    2.2746 O.3     1  UNL1       -0.3779
      9 C          12.5915   70.7411    0.0449 C.3     1  UNL1        0.1713
     10 C          12.3863   70.0487    1.3756 C.3     1  UNL1        0.1895
     11 C          12.8925   69.5700   -0.8805 C.3     1  UNL1        0.1764
     12 C          11.6740   68.7727    0.9607 C.3     1  UNL1        0.2383
     13 H          11.1604   72.0963    0.1853 H       1  UNL1        0.2105
     14 H          12.1221   71.6288    2.5084 H       1  UNL1        0.2106
     15 O          14.2730   67.8769    1.6082 O.2     1  UNL1       -0.2464
     16 O          12.6411   64.5541    4.3542 O.2     1  UNL1       -0.2670
     17 N          11.9571   67.6756    1.8423 N.ar    1  UNL1       -0.2551
     18 N          13.4577   66.2221    2.9744 N.ar    1  UNL1       -0.2743
     19 C          13.2982   67.3060    2.1010 C.ar    1  UNL1        0.3323
     20 C          10.9138   66.9799    2.4410 C.ar    1  UNL1        0.0869
     21 C          11.0815   65.9490    3.2715 C.ar    1  UNL1        0.0795
     22 C          12.4515   65.4986    3.5938 C.ar    1  UNL1        0.2626
     23 H          14.3824   65.9451    3.1682 H       1  UNL1        0.1734
     24 O          16.1294   69.8363   -3.1086 O.3     1  UNL1       -0.2703
     25 P          17.5997   69.4842   -3.6812 P.3     1  UNL1        0.2208
     26 O          17.7489   67.9027   -3.3698 O.co2   1  UNL1       -0.4371
     27 O          18.7008   70.3327   -3.1142 O.2     1  UNL1       -0.5170
     28 O          17.4459   69.5707   -5.2848 O.3     1  UNL1       -0.2858
     29 O          18.6312   71.5385   -5.8609 O.3     1  UNL1       -0.3226
     30 O          17.6814   70.0100   -9.5797 O.3     1  UNL1       -0.3794
     31 O          15.7132   69.9834   -7.4210 O.3     1  UNL1       -0.3775
     32 O          20.3887   69.7652   -8.5495 O.3     1  UNL1       -0.3792
     33 C          18.0132   69.9510   -8.1925 C.3     1  UNL1        0.1718
     34 C          16.9486   70.6883   -7.3798 C.3     1  UNL1        0.1968
     35 C          19.3798   70.6135   -8.0045 C.3     1  UNL1        0.1723
     36 C          17.3842   70.8452   -5.9223 C.3     1  UNL1        0.2706
     37 C          19.6862   70.8497   -6.5284 C.3     1  UNL1        0.1830
     38 H          16.8164   69.5948   -9.7234 H       1  UNL1        0.2105
     39 H          15.4310   69.8800   -8.3430 H       1  UNL1        0.2106
     40 H          20.2054   69.6068   -9.4887 H       1  UNL1        0.2106
     41 O          20.7406   72.4824   -5.2155 O.co2   1  UNL1       -0.5466
     42 O          21.7683   71.8905   -7.1630 O.co2   1  UNL1       -0.5466
     43 C          20.8462   71.7777   -6.3692 C.2     1  UNL1        0.0799
@<TRIPOS>UNITY_ATOM_ATTR
2 1
charge -1
26 1
charge -1
41 1
charge -1
@<TRIPOS>BOND
     1     1     4    1
     2     1    24    1
     3     1     2    1
     4     1     3    2
     5    25    28    1
     6    25    24    1
     7    25    26    1
     8    25    27    2
     9     6    11    1
    10     6    12    1
    11    29    36    1
    12    29    37    1
    13     7     9    1
    14     7    13    1
    15     8    10    1
    16     8    14    1
    17     4     5    1
    18    28    36    1
    19    30    33    1
    20    30    38    1
    21    31    34    1
    22    31    39    1
    23    32    35    1
    24    32    40    1
    25    41    43   ar
    26    15    19    2
    27    42    43   ar
    28    16    22    2
    29    17    12    1
    30    17    19   ar
    31    17    20   ar
    32    18    19   ar
    33    18    22   ar
    34    18    23    1
    35     9    10    1
    36     9    11    1
    37    10    12    1
    38    11     5    1
    39    33    34    1
    40    33    35    1
    41    34    36    1
    42    35    37    1
    43    37    43    1
    44    20    21   ar
    45    21    22   ar
@<TRIPOS>MOLECULE
*****
 43 45 0 0 0
SMALL
GASTEIGER

@<TRIPOS>ATOM
      1 P          22.7214   71.4087   -2.9716 P.3     1  UNL1        0.2189
      2 O          24.2718   70.9464   -2.9374 O.co2   1  UNL1       -0.4371
      3 O          21.7252   70.2866   -2.9554 O.2     1  UNL1       -0.5170
      4 O          22.6401   72.4020   -4.2462 O.3     1  UNL1       -0.3112
      5 C          21.3746   72.6498   -4.8307 C.3     1  UNL1        0.1811
      6 O          20.5212   70.6395   -5.8346 O.3     1  UNL1       -0.3308
      7 O          20.8714   72.0281   -8.4692 O.3     1  UNL1       -0.3794
      8 O          18.1958   72.2868   -8.0103 O.3     1  UNL1       -0.3779
      9 C          20.4741   72.5684   -7.2087 C.3     1  UNL1        0.1713
     10 C          19.0494   72.1660   -6.8916 C.3     1  UNL1        0.1895
     11 C          21.2583   71.8479   -6.1206 C.3     1  UNL1        0.1764
     12 C          19.2215   70.7256   -6.4402 C.3     1  UNL1        0.2383
     13 H          20.3835   72.4730   -9.1803 H       1  UNL1        0.2105
     14 H          18.1186   73.2219   -8.2585 H       1  UNL1        0.2106
     15 O          16.6658   69.7228   -7.1030 O.2     1  UNL1       -0.2464
     16 O          15.5036   69.2418   -2.6689 O.2     1  UNL1       -0.2670
     17 N          18.2313   70.3306   -5.4788 N.ar    1  UNL1       -0.2551
     18 N          16.0890   69.4851   -4.8939 N.ar    1  UNL1       -0.2743
     19 C          16.9785   69.8399   -5.9167 C.ar    1  UNL1        0.3323
     20 C          18.5056   70.4294   -4.1201 C.ar    1  UNL1        0.0869
     21 C          17.6476   70.0873   -3.1570 C.ar    1  UNL1        0.0795
     22 C          16.3161   69.5661   -3.5296 C.ar    1  UNL1        0.2626
     23 H          15.2095   69.1427   -5.1743 H       1  UNL1        0.1734
     24 O          22.6165   72.4204   -1.7152 O.3     1  UNL1       -0.2703
     25 P          23.3972   72.4393   -0.2997 P.3     1  UNL1        0.2208
     26 O          24.3751   73.7222   -0.4337 O.co2   1  UNL1       -0.4371
     27 O          24.1025   71.1560    0.0318 O.2     1  UNL1       -0.5170
     28 O          22.2824   72.8878    0.7766 O.3     1  UNL1       -0.2858
     29 O          21.2903   74.9184    1.4848 O.3     1  UNL1       -0.3226
     30 O          21.9722   73.0146    5.0874 O.3     1  UNL1       -0.3794
     31 O          23.9873   72.9494    2.9733 O.3     1  UNL1       -0.3775
     32 O          19.2843   73.1358    3.9869 O.3     1  UNL1       -0.3792
     33 C          21.6754   73.0986    3.6935 C.3     1  UNL1        0.1718
     34 C          22.8328   73.7811    2.9641 C.3     1  UNL1        0.1968
     35 C          20.3901   73.9134    3.5320 C.3     1  UNL1        0.1723
     36 C          22.4570   74.0955    1.5153 C.3     1  UNL1        0.2706
     37 C          20.1515   74.2942    2.0737 C.3     1  UNL1        0.1830
     38 H          22.7855   72.5011    5.2146 H       1  UNL1        0.2105
     39 H          24.2313   72.7457    3.8895 H       1  UNL1        0.2106
     40 H          19.4237   72.8866    4.9139 H       1  UNL1        0.2106
     41 O          19.6466   76.5397    1.6217 O.co2   1  UNL1       -0.5466
     42 O          17.9047   75.1696    2.1582 O.co2   1  UNL1       -0.5466
     43 C          19.0981   75.3483    1.9663 C.2     1  UNL1        0.0799
@<TRIPOS>UNITY_ATOM_ATTR
2 1
charge -1
26 1
charge -1
41 1
charge -1
@<TRIPOS>BOND
     1     1     4    1
     2     1    24    1
     3     1     2    1
     4     1     3    2
     5    25    28    1
     6    25    24    1
     7    25    26    1
     8    25    27    2
     9     6    11    1
    10     6    12    1
    11    29    36    1
    12    29    37    1
    13     7     9    1
    14     7    13    1
    15     8    10    1
    16     8    14    1
    17     4     5    1
    18    28    36    1
    19    30    33    1
    20    30    38    1
    21    31    34    1
    22    31    39    1
    23    32    35    1
    24    32    40    1
    25    41    43   ar
    26    15    19    2
    27    42    43   ar
    28    16    22    2
    29    17    12    1
    30    17    19   ar
    31    17    20   ar
    32    18    19   ar
    33    18    22   ar
    34    18    23    1
    35     9    10    1
    36     9    11    1
    37    10    12    1
    38    11     5    1
    39    33    34    1
    40    33    35    1
    41    34    36    1
    42    35    37    1
    43    37    43    1
    44    20    21   ar
    45    21    22   ar
@<TRIPOS>MOLECULE
*****
 43 45 0 0 0
SMALL
GASTEIGER

@<TRIPOS>ATOM
      1 P          22.9468   73.3216   -4.1494 P.3     1  UNL1        0.2189
      2 O          23.5568   71.8258   -4.0527 O.co2   1  UNL1       -0.4371
      3 O          23.8193   74.3172   -4.8561 O.2     1  UNL1       -0.5170
      4 O          22.5632   73.6844   -2.6199 O.3     1  UNL1       -0.3112
      5 C          21.5483   74.6436   -2.3867 C.3     1  UNL1        0.1811
      6 O          20.8536   72.7089   -1.1409 O.3     1  UNL1       -0.3308
      7 O          18.5414   74.3726   -0.2043 O.3     1  UNL1       -0.3794
      8 O          20.2409   74.4610    1.9265 O.3     1  UNL1       -0.3779
      9 C          19.8905   74.7633   -0.4606 C.3     1  UNL1        0.1713
     10 C          20.7990   74.2662    0.6439 C.3     1  UNL1        0.1895
     11 C          20.3883   73.9724   -1.6627 C.3     1  UNL1        0.1764
     12 C          20.9515   72.7968    0.2895 C.3     1  UNL1        0.2383
     13 H          18.2015   74.8647    0.5599 H       1  UNL1        0.2105
     14 H          20.1647   75.4120    2.1048 H       1  UNL1        0.2106
     15 O          21.4093   70.0781    0.9022 O.2     1  UNL1       -0.2464
     16 O          25.8476   70.8552    1.8723 O.2     1  UNL1       -0.2670
     17 N          22.2171   72.2614    0.7047 N.ar    1  UNL1       -0.2551
     18 N          23.6191   70.4679    1.3857 N.ar    1  UNL1       -0.2743
     19 C          22.3405   70.8808    0.9887 C.ar    1  UNL1        0.3323
     20 C          23.3188   73.0996    0.8254 C.ar    1  UNL1        0.0869
     21 C          24.5313   72.6915    1.2048 C.ar    1  UNL1        0.0795
     22 C          24.7450   71.2639    1.5209 C.ar    1  UNL1        0.2626
     23 H          23.7291   69.5113    1.5908 H       1  UNL1        0.1734
     24 O          21.5045   73.0815   -4.8386 O.3     1  UNL1       -0.2703
     25 P          20.9820   73.3806   -6.3390 P.3     1  UNL1        0.2208
     26 O          22.1171   72.6971   -7.2689 O.co2   1  UNL1       -0.4371
     27 O          20.7382   74.8335   -6.6280 O.2     1  UNL1       -0.5170
     28 O          19.6865   72.4360   -6.5172 O.3     1  UNL1       -0.2858
     29 O          19.1566   70.2518   -5.7704 O.3     1  UNL1       -0.3226
     30 O          17.4462   70.2926   -9.5308 O.3     1  UNL1       -0.3794
     31 O          20.0865   71.4634   -9.0921 O.3     1  UNL1       -0.3775
     32 O          15.7742   70.5306   -7.1646 O.3     1  UNL1       -0.3792
     33 C          17.8802   70.8504   -8.2905 C.3     1  UNL1        0.1718
     34 C          19.3904   70.6615   -8.1450 C.3     1  UNL1        0.1968
     35 C          17.1421   70.1264   -7.1622 C.3     1  UNL1        0.1723
     36 C          19.8555   71.0368   -6.7372 C.3     1  UNL1        0.2706
     37 C          17.7458   70.4560   -5.8001 C.3     1  UNL1        0.1830
     38 H          17.9021   70.7373  -10.2627 H       1  UNL1        0.2105
     39 H          19.7960   71.2308   -9.9876 H       1  UNL1        0.2106
     40 H          15.3782   70.3264   -8.0262 H       1  UNL1        0.2106
     41 O          16.5710   68.4821   -5.3255 O.co2   1  UNL1       -0.5466
     42 O          17.4238   69.6365   -3.5537 O.co2   1  UNL1       -0.5466
     43 C          17.2478   69.5101   -4.7563 C.2     1  UNL1        0.0799
@<TRIPOS>UNITY_ATOM_ATTR
2 1
charge -1
26 1
charge -1
41 1
charge -1
@<TRIPOS>BOND
     1     1     4    1
     2     1    24    1
     3     1     2    1
     4     1     3    2
     5    25    28    1
     6    25    24    1
     7    25    26    1
     8    25    27    2
     9     6    11    1
    10     6    12    1
    11    29    36    1
    12    29    37    1
    13     7     9    1
    14     7    13    1
    15     8    10    1
    16     8    14    1
    17     4     5    1
    18    28    36    1
    19    30    33    1
    20    30    38    1
    21    31    34    1
    22    31    39    1
    23    32    35    1
    24    32    40    1
    25    41    43   ar
    26    15    19    2
    27    42    43   ar
    28    16    22    2
    29    17    12    1
    30    17    19   ar
    31    17    20   ar
    32    18    19   ar
    33    18    22   ar
    34    18    23    1
    35     9    10    1
    36     9    11    1
    37    10    12    1
    38    11     5    1
    39    33    34    1
    40    33    35    1
    41    34    36    1
    42    35    37    1
    43    37    43    1
    44    20    21   ar
    45    21    22   ar
@<TRIPOS>MOLECULE
*****
 43 45 0 0 0
SMALL
GASTEIGER

@<TRIPOS>ATOM
      1 P          23.0789   72.9816   -3.1701 P.3     1  UNL1        0.2189
      2 O          23.1822   74.5819   -3.3878 O.co2   1  UNL1       -0.4371
      3 O          24.1785   72.1833   -3.8069 O.2     1  UNL1       -0.5170
      4 O          21.5777   72.6199   -3.6533 O.3     1  UNL1       -0.3112
      5 C          21.0751   73.2420   -4.8216 C.3     1  UNL1        0.1811
      6 O          20.6126   71.0148   -5.5984 O.3     1  UNL1       -0.3308
      7 O          21.0251   72.0943   -8.3654 O.3     1  UNL1       -0.3794
      8 O          18.3074   72.0023   -8.1606 O.3     1  UNL1       -0.3779
      9 C          20.4340   72.7241   -7.2285 C.3     1  UNL1        0.1713
     10 C          19.0547   72.1548   -6.9720 C.3     1  UNL1        0.1895
     11 C          21.1994   72.2744   -5.9915 C.3     1  UNL1        0.1764
     12 C          19.3798   70.8261   -6.3111 C.3     1  UNL1        0.2383
     13 H          20.5528   72.3665   -9.1682 H       1  UNL1        0.2105
     14 H          18.1259   72.8758   -8.5427 H       1  UNL1        0.2106
     15 O          16.9326   69.6308   -7.0586 O.2     1  UNL1       -0.2464
     16 O          15.5568   69.2760   -2.6739 O.2     1  UNL1       -0.2670
     17 N          18.3640   70.4116   -5.3853 N.ar    1  UNL1       -0.2551
     18 N          16.2493   69.4562   -4.8741 N.ar    1  UNL1       -0.2743
     19 C          17.1707   69.8213   -5.8644 C.ar    1  UNL1        0.3323
     20 C          18.5553   70.5892   -4.0204 C.ar    1  UNL1        0.0869
     21 C          17.6679   70.2359   -3.0885 C.ar    1  UNL1        0.0795
     22 C          16.3943   69.6132   -3.5052 C.ar    1  UNL1        0.2626
     23 H          15.4099   69.0451   -5.1836 H       1  UNL1        0.1734
     24 O          22.9875   72.8391   -1.5626 O.3     1  UNL1       -0.2703
     25 P          22.6436   71.5658   -0.6277 P.3     1  UNL1        0.2208
     26 O          24.0914   70.8839   -0.3843 O.co2   1  UNL1       -0.4371
     27 O          21.6126   70.6392   -1.2042 O.2     1  UNL1       -0.5170
     28 O          22.2479   72.2020    0.8010 O.3     1  UNL1       -0.2858
     29 O          22.7804   74.3425    1.6635 O.3     1  UNL1       -0.3226
     30 O          22.5651   72.0766    5.1113 O.3     1  UNL1       -0.3794
     31 O          23.8729   71.0183    2.7230 O.3     1  UNL1       -0.3775
     32 O          20.4010   73.8902    4.4197 O.3     1  UNL1       -0.3792
     33 C          22.2261   72.4546    3.7771 C.3     1  UNL1        0.1718
     34 C          23.4690   72.3723    2.8905 C.3     1  UNL1        0.1968
     35 C          21.6919   73.8882    3.8130 C.3     1  UNL1        0.1723
     36 C          23.2017   72.9860    1.5154 C.3     1  UNL1        0.2706
     37 C          21.5718   74.4733    2.4088 C.3     1  UNL1        0.1830
     38 H          22.9071   71.1687    5.1133 H       1  UNL1        0.2105
     39 H          24.0440   70.6226    3.5916 H       1  UNL1        0.2106
     40 H          20.4635   73.5200    5.3140 H       1  UNL1        0.2106
     41 O          21.7031   76.4338    3.6897 O.co2   1  UNL1       -0.5466
     42 O          20.9674   76.6422    1.5416 O.co2   1  UNL1       -0.5466
     43 C          21.3715   75.9528    2.4660 C.2     1  UNL1        0.0799
@<TRIPOS>UNITY_ATOM_ATTR
2 1
charge -1
26 1
charge -1
41 1
charge -1
@<TRIPOS>BOND
     1     1     4    1
     2     1    24    1
     3     1     2    1
     4     1     3    2
     5    25    28    1
     6    25    24    1
     7    25    26    1
     8    25    27    2
     9     6    11    1
    10     6    12    1
    11    29    36    1
    12    29    37    1
    13     7     9    1
    14     7    13    1
    15     8    10    1
    16     8    14    1
    17     4     5    1
    18    28    36    1
    19    30    33    1
    20    30    38    1
    21    31    34    1
    22    31    39    1
    23    32    35    1
    24    32    40    1
    25    41    43   ar
    26    15    19    2
    27    42    43   ar
    28    16    22    2
    29    17    12    1
    30    17    19   ar
    31    17    20   ar
    32    18    19   ar
    33    18    22   ar
    34    18    23    1
    35     9    10    1
    36     9    11    1
    37    10    12    1
    38    11     5    1
    39    33    34    1
    40    33    35    1
    41    34    36    1
    42    35    37    1
    43    37    43    1
    44    20    21   ar
    45    21    22   ar
@<TRIPOS>MOLECULE
*****
 43 45 0 0 0
SMALL
GASTEIGER

@<TRIPOS>ATOM
      1 P          21.2972   73.1055   -3.5066 P.3     1  UNL1        0.2189
      2 O          21.4978   72.4998   -2.0194 O.co2   1  UNL1       -0.4371
      3 O          20.4471   74.3400   -3.5786 O.2     1  UNL1       -0.5170
      4 O          20.7766   71.8425   -4.3736 O.3     1  UNL1       -0.3112
      5 C          20.0158   70.8423   -3.7214 C.3     1  UNL1        0.1811
      6 O          18.2264   71.8426   -4.9764 O.3     1  UNL1       -0.3308
      7 O          16.3774   70.6326   -2.9494 O.3     1  UNL1       -0.3794
      8 O          16.1631   68.9115   -5.0537 O.3     1  UNL1       -0.3779
      9 C          17.5903   70.1099   -3.4918 C.3     1  UNL1        0.1713
     10 C          17.3675   69.6353   -4.9122 C.3     1  UNL1        0.1895
     11 C          18.5545   71.2712   -3.6914 C.3     1  UNL1        0.1764
     12 C          17.3574   70.9438   -5.6840 C.3     1  UNL1        0.2383
     13 H          15.7454   69.9089   -2.8131 H       1  UNL1        0.2105
     14 H          16.2196   68.0872   -4.5443 H       1  UNL1        0.2106
     15 O          15.7133   70.3876   -7.9120 O.2     1  UNL1       -0.2464
     16 O          19.3101   70.3783  -10.7942 O.2     1  UNL1       -0.2670
     17 N          17.8381   70.7910   -7.0280 N.ar    1  UNL1       -0.2551
     18 N          17.5064   70.3825   -9.3452 N.ar    1  UNL1       -0.2743
     19 C          16.9285   70.5124   -8.0755 C.ar    1  UNL1        0.3323
     20 C          19.1952   70.9187   -7.2981 C.ar    1  UNL1        0.0869
     21 C          19.7311   70.7923   -8.5136 C.ar    1  UNL1        0.0795
     22 C          18.8498   70.5002   -9.6631 C.ar    1  UNL1        0.2626
     23 H          16.8933   70.1864  -10.0902 H       1  UNL1        0.1734
     24 O          22.8152   73.3020   -4.0262 O.3     1  UNL1       -0.2703
     25 P          23.7737   74.6039   -4.0356 P.3     1  UNL1        0.2208
     26 O          25.2616   73.9680   -3.9907 O.co2   1  UNL1       -0.4371
     27 O          23.4879   75.5870   -2.9375 O.2     1  UNL1       -0.5170
     28 O          23.6327   75.2052   -5.5260 O.3     1  UNL1       -0.2858
     29 O          25.1771   76.2028   -7.0188 O.3     1  UNL1       -0.3226
     30 O          21.7647   78.4189   -7.7344 O.3     1  UNL1       -0.3794
     31 O          22.5180   77.6996   -5.0050 O.3     1  UNL1       -0.3775
     32 O          22.6147   76.3929   -9.6380 O.3     1  UNL1       -0.3792
     33 C          22.5129   77.2531   -7.3897 C.3     1  UNL1        0.1718
     34 C          23.3542   77.5345   -6.1445 C.3     1  UNL1        0.1968
     35 C          23.4163   76.9035   -8.5745 C.3     1  UNL1        0.1723
     36 C          24.3377   76.3938   -5.8794 C.3     1  UNL1        0.2706
     37 C          24.4511   75.8486   -8.1938 C.3     1  UNL1        0.1830
     38 H          21.1832   78.6601   -6.9962 H       1  UNL1        0.2105
     39 H          21.8912   78.4217   -5.1664 H       1  UNL1        0.2106
     40 H          21.9518   77.0547   -9.8897 H       1  UNL1        0.2106
     41 O          26.7193   75.4789   -8.6631 O.co2   1  UNL1       -0.5466
     42 O          25.3464   75.9026  -10.4337 O.co2   1  UNL1       -0.5466
     43 C          25.5202   75.7549   -9.2333 C.2     1  UNL1        0.0799
@<TRIPOS>UNITY_ATOM_ATTR
2 1
charge -1
26 1
charge -1
41 1
charge -1
@<TRIPOS>BOND
     1     1     4    1
     2     1    24    1
     3     1     2    1
     4     1     3    2
     5    25    28    1
     6    25    24    1
     7    25    26    1
     8    25    27    2
     9     6    11    1
    10     6    12    1
    11    29    36    1
    12    29    37    1
    13     7     9    1
    14     7    13    1
    15     8    10    1
    16     8    14    1
    17     4     5    1
    18    28    36    1
    19    30    33    1
    20    30    38    1
    21    31    34    1
    22    31    39    1
    23    32    35    1
    24    32    40    1
    25    41    43   ar
    26    15    19    2
    27    42    43   ar
    28    16    22    2
    29    17    12    1
    30    17    19   ar
    31    17    20   ar
    32    18    19   ar
    33    18    22   ar
    34    18    23    1
    35     9    10    1
    36     9    11    1
    37    10    12    1
    38    11     5    1
    39    33    34    1
    40    33    35    1
    41    34    36    1
    42    35    37    1
    43    37    43    1
    44    20    21   ar
    45    21    22   ar
@<TRIPOS>MOLECULE
*****
 43 45 0 0 0
SMALL
GASTEIGER

@<TRIPOS>ATOM
      1 P          21.5566   74.0979   -1.8288 P.3     1  UNL1        0.2189
      2 O          22.8783   73.1644   -1.8068 O.co2   1  UNL1       -0.4371
      3 O          21.8241   75.5741   -1.8629 O.2     1  UNL1       -0.5170
      4 O          20.6873   73.5702   -0.5703 O.3     1  UNL1       -0.3112
      5 C          20.1882   74.5207    0.3527 C.3     1  UNL1        0.1811
      6 O          20.2981   72.5102    1.6656 O.3     1  UNL1       -0.3308
      7 O          18.9391   74.0733    3.8338 O.3     1  UNL1       -0.3794
      8 O          21.5464   74.0894    4.6324 O.3     1  UNL1       -0.3779
      9 C          19.9112   74.5058    2.8817 C.3     1  UNL1        0.1713
     10 C          21.2794   73.9726    3.2505 C.3     1  UNL1        0.1895
     11 C          19.6333   73.7884    1.5677 C.3     1  UNL1        0.1764
     12 C          21.1885   72.5269    2.7927 C.3     1  UNL1        0.2383
     13 H          19.0962   74.5183    4.6817 H       1  UNL1        0.2105
     14 H          21.5949   75.0281    4.8741 H       1  UNL1        0.2106
     15 O          21.5241   70.2641    1.1363 O.2     1  UNL1       -0.2464
     16 O          26.1183   70.5889    1.3134 O.2     1  UNL1       -0.2670
     17 N          22.4611   71.9985    2.3902 N.ar    1  UNL1       -0.2551
     18 N          23.8120   70.4274    1.2269 N.ar    1  UNL1       -0.2743
     19 C          22.5196   70.8569    1.5563 C.ar    1  UNL1        0.3323
     20 C          23.6330   72.6100    2.8189 C.ar    1  UNL1        0.0869
     21 C          24.8576   72.1891    2.4966 C.ar    1  UNL1        0.0795
     22 C          25.0067   71.0021    1.6293 C.ar    1  UNL1        0.2626
     23 H          23.8782   69.6331    0.6489 H       1  UNL1        0.1734
     24 O          20.7345   73.5330   -3.1007 O.3     1  UNL1       -0.2703
     25 P          21.1822   72.5471   -4.3011 P.3     1  UNL1        0.2208
     26 O          21.4400   71.1385   -3.5462 O.co2   1  UNL1       -0.4371
     27 O          22.3517   73.0428   -5.1015 O.2     1  UNL1       -0.5170
     28 O          19.8367   72.3091   -5.1587 O.3     1  UNL1       -0.2858
     29 O          18.6906   70.2365   -5.1723 O.3     1  UNL1       -0.3226
     30 O          17.3207   71.9775   -8.6595 O.3     1  UNL1       -0.3794
     31 O          20.1407   72.1642   -7.9196 O.3     1  UNL1       -0.3775
     32 O          15.6123   71.8776   -6.3095 O.3     1  UNL1       -0.3792
     33 C          17.8004   71.9554   -7.3151 C.3     1  UNL1        0.1718
     34 C          19.1909   71.3209   -7.2782 C.3     1  UNL1        0.1968
     35 C          16.8184   71.1346   -6.4760 C.3     1  UNL1        0.1723
     36 C          19.6400   71.0703   -5.8379 C.3     1  UNL1        0.2706
     37 C          17.3916   70.8196   -5.0973 C.3     1  UNL1        0.1830
     38 H          17.9291   72.4937   -9.2115 H       1  UNL1        0.2105
     39 H          19.8619   72.3276   -8.8339 H       1  UNL1        0.2106
     40 H          15.2374   72.0847   -7.1798 H       1  UNL1        0.2106
     41 O          16.8328   68.5452   -4.9685 O.co2   1  UNL1       -0.5466
     42 O          15.8136   69.9520   -3.4915 O.co2   1  UNL1       -0.5466
     43 C          16.5869   69.7598   -4.4179 C.2     1  UNL1        0.0799
@<TRIPOS>UNITY_ATOM_ATTR
2 1
charge -1
26 1
charge -1
41 1
charge -1
@<TRIPOS>BOND
     1     1     4    1
     2     1    24    1
     3     1     2    1
     4     1     3    2
     5    25    28    1
     6    25    24    1
     7    25    26    1
     8    25    27    2
     9     6    11    1
    10     6    12    1
    11    29    36    1
    12    29    37    1
    13     7     9    1
    14     7    13    1
    15     8    10    1
    16     8    14    1
    17     4     5    1
    18    28    36    1
    19    30    33    1
    20    30    38    1
    21    31    34    1
    22    31    39    1
    23    32    35    1
    24    32    40    1
    25    41    43   ar
    26    15    19    2
    27    42    43   ar
    28    16    22    2
    29    17    12    1
    30    17    19   ar
    31    17    20   ar
    32    18    19   ar
    33    18    22   ar
    34    18    23    1
    35     9    10    1
    36     9    11    1
    37    10    12    1
    38    11     5    1
    39    33    34    1
    40    33    35    1
    41    34    36    1
    42    35    37    1
    43    37    43    1
    44    20    21   ar
    45    21    22   ar
