@<TRIPOS>MOLECULE
GDU
 43 45 0 0 0
SMALL
GASTEIGER

@<TRIPOS>ATOM
      1 P          21.1013   71.8010   -2.1754 P.3     1  UNL1        0.2189
      2 O          21.4454   71.3470   -3.5411 O.2     1  UNL1       -0.5170
      3 O          21.1559   73.4092   -2.1150 O.3     1  UNL1       -0.4371
      4 O          19.6197   71.2999   -1.8003 O.3     1  UNL1       -0.3112
      5 C          19.3314   70.1883   -2.6497 C.3     1  UNL1        0.1811
      6 C          17.4113   70.4576   -5.6776 C.3     1  UNL1        0.2383
      7 C          17.1493   69.0138   -5.1778 C.3     1  UNL1        0.1895
      8 O          15.8435   68.5723   -5.5563 O.3     1  UNL1       -0.3779
      9 C          17.2531   69.1788   -3.6392 C.3     1  UNL1        0.1713
     10 C          18.0633   70.4755   -3.4557 C.3     1  UNL1        0.1764
     11 O          18.4148   70.9528   -4.7659 O.3     1  UNL1       -0.3308
     12 O          15.9524   69.3076   -3.0617 O.3     1  UNL1       -0.3794
     13 H          15.7444   67.6718   -5.2170 H       1  UNL1        0.2106
     14 H          15.4754   68.4906   -3.2607 H       1  UNL1        0.2105
     15 N          17.9215   70.4462   -7.0496 N.ar    1  UNL1       -0.2551
     16 C          17.0594   70.4398   -8.0816 C.ar    1  UNL1        0.3323
     17 N          17.5024   70.4328   -9.3527 N.ar    1  UNL1       -0.2743
     18 C          18.8240   70.4222   -9.6121 C.ar    1  UNL1        0.2626
     19 C          19.7438   70.4231   -8.5349 C.ar    1  UNL1        0.0795
     20 C          19.2726   70.4344   -7.2699 C.ar    1  UNL1        0.0869
     21 O          15.8643   70.4497   -7.8632 O.2     1  UNL1       -0.2464
     22 O          19.2259   70.4111  -10.7622 O.2     1  UNL1       -0.2670
     23 H          16.8660   70.4326  -10.0853 H       1  UNL1        0.1734
     24 O          22.1579   71.1897   -1.1256 O.3     1  UNL1       -0.2703
     25 P          21.5842   71.4970    0.3463 P.3     1  UNL1        0.2208
     26 O          20.2117   72.0386    0.2374 O.2     1  UNL1       -0.5170
     27 O          21.5566   70.1354    1.2063 O.3     1  UNL1       -0.4371
     28 O          22.5304   72.5735    1.0784 O.3     1  UNL1       -0.2858
     29 C          22.9134   72.0051    2.3314 C.3     1  UNL1        0.2704
     30 C          22.0333   72.5809    3.4419 C.3     1  UNL1        0.1967
     31 C          22.1948   74.1040    3.4669 C.3     1  UNL1        0.1715
     32 C          23.6870   74.4368    3.5785 C.3     1  UNL1        0.1694
     33 C          24.4419   73.7212    2.4555 C.3     1  UNL1        0.1761
     34 O          20.6670   72.2471    3.1913 O.3     1  UNL1       -0.3775
     35 O          21.4950   74.6426    4.5905 O.3     1  UNL1       -0.3794
     36 O          24.1803   74.0006    4.8459 O.3     1  UNL1       -0.3794
     37 O          24.2817   72.3098    2.5911 O.3     1  UNL1       -0.3258
     38 H          20.6137   71.2817    3.1771 H       1  UNL1        0.2106
     39 H          20.5665   74.3997    4.4846 H       1  UNL1        0.2105
     40 H          23.6738   74.4714    5.5205 H       1  UNL1        0.2105
     41 C          25.9287   74.0743    2.5372 C.3     1  UNL1        0.1693
     42 O          26.5806   73.1809    3.4415 O.3     1  UNL1       -0.3794
     43 H          27.5131   73.4363    3.4637 H       1  UNL1        0.2105
@<TRIPOS>BOND
     1    15    16   ar
     2    15    20   ar
     3    15     6    1
     4    16    17   ar
     5    16    21    2
     6    17    18   ar
     7    17    23    1
     8    18    19   ar
     9    18    22    2
    10    19    20   ar
    11     6     7    1
    12     6    11    1
    13     7     8    1
    14     7     9    1
    15     8    13    1
    16     9    10    1
    17     9    12    1
    18    10    11    1
    19    10     5    1
    20    12    14    1
    21     5     4    1
    22     4     1    1
    23     1     2    2
    24     1     3    1
    25     1    24    1
    26    24    25    1
    27    25    26    2
    28    25    27    1
    29    25    28    1
    30    28    29    1
    31    29    30    1
    32    29    37    1
    33    30    31    1
    34    30    34    1
    35    31    32    1
    36    31    35    1
    37    32    33    1
    38    32    36    1
    39    33    41    1
    40    33    37    1
    41    41    42    1
    42    34    38    1
    43    35    39    1
    44    36    40    1
    45    42    43    1
@<TRIPOS>MOLECULE
GDU
 43 45 0 0 0
SMALL
GASTEIGER

@<TRIPOS>ATOM
      1 P          20.4513   71.5597   -2.9525 P.3     1  UNL1        0.2189
      2 O          20.4118   72.0355   -4.3530 O.2     1  UNL1       -0.5170
      3 O          20.5398   72.8236   -1.9587 O.3     1  UNL1       -0.4371
      4 O          19.1182   70.7184   -2.6332 O.3     1  UNL1       -0.3112
      5 C          18.0320   71.6461   -2.6396 C.3     1  UNL1        0.1811
      6 C          16.7952   70.4834   -5.8091 C.3     1  UNL1        0.2383
      7 C          17.1349   69.1896   -5.0257 C.3     1  UNL1        0.1895
      8 O          16.2699   68.1186   -5.4103 O.3     1  UNL1       -0.3779
      9 C          16.8667   69.6179   -3.5594 C.3     1  UNL1        0.1713
     10 C          16.9455   71.1553   -3.5982 C.3     1  UNL1        0.1764
     11 O          17.2745   71.5359   -4.9454 O.3     1  UNL1       -0.3308
     12 O          15.5696   69.1871   -3.1424 O.3     1  UNL1       -0.3794
     13 H          16.5327   67.3471   -4.8892 H       1  UNL1        0.2106
     14 H          15.5644   68.2218   -3.1959 H       1  UNL1        0.2105
     15 N          17.4969   70.5104   -7.0935 N.ar    1  UNL1       -0.2551
     16 C          16.7917   70.5362   -8.2382 C.ar    1  UNL1        0.3323
     17 N          17.4125   70.5649   -9.4323 N.ar    1  UNL1       -0.2743
     18 C          18.7577   70.5583   -9.4997 C.ar    1  UNL1        0.2626
     19 C          19.5135   70.5256   -8.3022 C.ar    1  UNL1        0.0795
     20 C          18.8656   70.5014   -7.1180 C.ar    1  UNL1        0.0869
     21 O          15.5777   70.5429   -8.1933 O.2     1  UNL1       -0.2464
     22 O          19.3204   70.5795  -10.5801 O.2     1  UNL1       -0.2670
     23 H          16.8878   70.5876  -10.2483 H       1  UNL1        0.1734
     24 O          21.7428   70.6216   -2.7416 O.3     1  UNL1       -0.2703
     25 P          22.9891   71.5999   -2.4595 P.3     1  UNL1        0.2208
     26 O          24.2520   70.8864   -2.7513 O.2     1  UNL1       -0.5170
     27 O          22.8763   72.8988   -3.4053 O.3     1  UNL1       -0.4371
     28 O          22.9746   72.0581   -0.9168 O.3     1  UNL1       -0.2858
     29 C          23.1063   70.8730   -0.1307 C.3     1  UNL1        0.2704
     30 C          21.9234   70.7673    0.8331 C.3     1  UNL1        0.1967
     31 C          21.8970   72.0100    1.7283 C.3     1  UNL1        0.1715
     32 C          23.2692   72.1635    2.3941 C.3     1  UNL1        0.1694
     33 C          24.3506   72.1654    1.3108 C.3     1  UNL1        0.1761
     34 O          20.7061   70.6852    0.0896 O.3     1  UNL1       -0.3775
     35 O          20.8889   71.8588    2.7300 O.3     1  UNL1       -0.3794
     36 O          23.4885   71.0755    3.2931 O.3     1  UNL1       -0.3794
     37 O          24.3266   70.9258    0.6046 O.3     1  UNL1       -0.3258
     38 H          20.7698   69.8947   -0.4635 H       1  UNL1        0.2106
     39 H          20.0480   71.7538    2.2671 H       1  UNL1        0.2105
     40 H          22.7830   71.1105    3.9522 H       1  UNL1        0.2105
     41 C          25.7225   72.3527    1.9625 C.3     1  UNL1        0.1693
     42 O          26.2354   71.0814    2.3648 O.3     1  UNL1       -0.3794
     43 H          27.0990   71.2431    2.7690 H       1  UNL1        0.2105
@<TRIPOS>BOND
     1    15    16   ar
     2    15    20   ar
     3    15     6    1
     4    16    17   ar
     5    16    21    2
     6    17    18   ar
     7    17    23    1
     8    18    19   ar
     9    18    22    2
    10    19    20   ar
    11     6     7    1
    12     6    11    1
    13     7     8    1
    14     7     9    1
    15     8    13    1
    16     9    10    1
    17     9    12    1
    18    10    11    1
    19    10     5    1
    20    12    14    1
    21     5     4    1
    22     4     1    1
    23     1     2    2
    24     1     3    1
    25     1    24    1
    26    24    25    1
    27    25    26    2
    28    25    27    1
    29    25    28    1
    30    28    29    1
    31    29    30    1
    32    29    37    1
    33    30    31    1
    34    30    34    1
    35    31    32    1
    36    31    35    1
    37    32    33    1
    38    32    36    1
    39    33    41    1
    40    33    37    1
    41    41    42    1
    42    34    38    1
    43    35    39    1
    44    36    40    1
    45    42    43    1
@<TRIPOS>MOLECULE
GDU
 43 45 0 0 0
SMALL
GASTEIGER

@<TRIPOS>ATOM
      1 P          20.6806   71.4593   -1.2380 P.3     1  UNL1        0.2189
      2 O          21.0721   72.8706   -1.0271 O.2     1  UNL1       -0.5170
      3 O          20.9535   70.6198    0.1088 O.3     1  UNL1       -0.4371
      4 O          19.1174   71.3853   -1.6091 O.3     1  UNL1       -0.3112
      5 C          18.9500   70.2596   -2.4724 C.3     1  UNL1        0.1811
      6 C          17.1551   70.4138   -5.5840 C.3     1  UNL1        0.2383
      7 C          16.9839   68.9484   -5.1082 C.3     1  UNL1        0.1895
      8 O          15.7352   68.4113   -5.5504 O.3     1  UNL1       -0.3779
      9 C          17.0041   69.1033   -3.5652 C.3     1  UNL1        0.1713
     10 C          17.7015   70.4568   -3.3341 C.3     1  UNL1        0.1764
     11 O          18.0743   70.9748   -4.6228 O.3     1  UNL1       -0.3308
     12 O          15.6723   69.1244   -3.0478 O.3     1  UNL1       -0.3794
     13 H          15.6912   67.5020   -5.2232 H       1  UNL1        0.2106
     14 H          15.2700   68.2751   -3.2751 H       1  UNL1        0.2105
     15 N          17.7268   70.4576   -6.9309 N.ar    1  UNL1       -0.2551
     16 C          16.9143   70.4210   -8.0017 C.ar    1  UNL1        0.3323
     17 N          17.4141   70.4636   -9.2508 N.ar    1  UNL1       -0.2743
     18 C          18.7446   70.5339   -9.4488 C.ar    1  UNL1        0.2626
     19 C          19.6129   70.5673   -8.3302 C.ar    1  UNL1        0.0795
     20 C          19.0849   70.5277   -7.0884 C.ar    1  UNL1        0.0869
     21 O          15.7119   70.3581   -7.8389 O.2     1  UNL1       -0.2464
     22 O          19.1982   70.5676  -10.5791 O.2     1  UNL1       -0.2670
     23 H          16.8127   70.4405  -10.0121 H       1  UNL1        0.1734
     24 O          21.5495   70.8366   -2.4421 O.3     1  UNL1       -0.2703
     25 P          22.7731   71.8480   -2.7062 P.3     1  UNL1        0.2208
     26 O          23.1741   72.4806   -1.4302 O.2     1  UNL1       -0.5170
     27 O          24.0211   71.0325   -3.3158 O.3     1  UNL1       -0.4371
     28 O          22.3155   72.9849   -3.7494 O.3     1  UNL1       -0.2858
     29 C          21.4686   72.3510   -4.7089 C.3     1  UNL1        0.2704
     30 C          21.9219   72.7326   -6.1189 C.3     1  UNL1        0.1967
     31 C          21.8615   74.2561   -6.2669 C.3     1  UNL1        0.1715
     32 C          20.4552   74.7302   -5.8831 C.3     1  UNL1        0.1694
     33 C          20.1138   74.1983   -4.4890 C.3     1  UNL1        0.1761
     34 O          23.2615   72.2826   -6.3292 O.3     1  UNL1       -0.3775
     35 O          22.1400   74.6183   -7.6210 O.3     1  UNL1       -0.3794
     36 O          19.5090   74.2374   -6.8328 O.3     1  UNL1       -0.3794
     37 O          20.1220   72.7716   -4.5029 O.3     1  UNL1       -0.3258
     38 H          23.2536   71.3220   -6.2195 H       1  UNL1        0.2106
     39 H          23.0259   74.2909   -7.8218 H       1  UNL1        0.2105
     40 H          19.7661   74.5920   -7.6939 H       1  UNL1        0.2105
     41 C          18.7246   74.6947   -4.0818 C.3     1  UNL1        0.1693
     42 O          18.2862   73.9832   -2.9231 O.3     1  UNL1       -0.3794
     43 H          17.4098   74.3255   -2.6994 H       1  UNL1        0.2105
@<TRIPOS>BOND
     1    15    16   ar
     2    15    20   ar
     3    15     6    1
     4    16    17   ar
     5    16    21    2
     6    17    18   ar
     7    17    23    1
     8    18    19   ar
     9    18    22    2
    10    19    20   ar
    11     6     7    1
    12     6    11    1
    13     7     8    1
    14     7     9    1
    15     8    13    1
    16     9    10    1
    17     9    12    1
    18    10    11    1
    19    10     5    1
    20    12    14    1
    21     5     4    1
    22     4     1    1
    23     1     2    2
    24     1     3    1
    25     1    24    1
    26    24    25    1
    27    25    26    2
    28    25    27    1
    29    25    28    1
    30    28    29    1
    31    29    30    1
    32    29    37    1
    33    30    31    1
    34    30    34    1
    35    31    32    1
    36    31    35    1
    37    32    33    1
    38    32    36    1
    39    33    41    1
    40    33    37    1
    41    41    42    1
    42    34    38    1
    43    35    39    1
    44    36    40    1
    45    42    43    1
@<TRIPOS>MOLECULE
GDU
 43 45 0 0 0
SMALL
GASTEIGER

@<TRIPOS>ATOM
      1 P          20.9228   71.3277   -3.1172 P.3     1  UNL1        0.2189
      2 O          21.6639   70.5776   -2.0791 O.2     1  UNL1       -0.5170
      3 O          20.8827   70.4652   -4.4764 O.3     1  UNL1       -0.4371
      4 O          19.4210   71.6029   -2.6117 O.3     1  UNL1       -0.3112
      5 C          18.9807   72.7999   -3.2550 C.3     1  UNL1        0.1811
      6 C          17.3008   71.5583   -6.1814 C.3     1  UNL1        0.2383
      7 C          17.3030   70.3611   -5.1967 C.3     1  UNL1        0.1895
      8 O          16.1522   69.5365   -5.3939 O.3     1  UNL1       -0.3779
      9 C          17.2442   71.0728   -3.8199 C.3     1  UNL1        0.1713
     10 C          17.7509   72.4972   -4.1130 C.3     1  UNL1        0.1764
     11 O          18.1021   72.5512   -5.5065 O.3     1  UNL1       -0.3308
     12 O          15.9022   71.1028   -3.3301 O.3     1  UNL1       -0.3794
     13 H          16.2141   68.8137   -4.7539 H       1  UNL1        0.2106
     14 H          15.6224   70.1836   -3.2231 H       1  UNL1        0.2105
     15 N          17.9128   71.1813   -7.4566 N.ar    1  UNL1       -0.2551
     16 C          17.1471   70.6783   -8.4409 C.ar    1  UNL1        0.3323
     17 N          17.6843   70.3271   -9.6241 N.ar    1  UNL1       -0.2743
     18 C          19.0069   70.4656   -9.8382 C.ar    1  UNL1        0.2626
     19 C          19.8267   70.9888   -8.8084 C.ar    1  UNL1        0.0795
     20 C          19.2614   71.3370   -7.6330 C.ar    1  UNL1        0.0869
     21 O          15.9524   70.5479   -8.2626 O.2     1  UNL1       -0.2464
     22 O          19.4949   70.1435  -10.9072 O.2     1  UNL1       -0.2670
     23 H          17.1160   69.9697  -10.3248 H       1  UNL1        0.1734
     24 O          21.6625   72.7306   -3.3951 O.3     1  UNL1       -0.2703
     25 P          23.2441   72.4331   -3.3912 P.3     1  UNL1        0.2208
     26 O          23.4725   70.9830   -3.2067 O.2     1  UNL1       -0.5170
     27 O          23.8816   72.9021   -4.7940 O.3     1  UNL1       -0.4371
     28 O          23.9409   73.2444   -2.1886 O.3     1  UNL1       -0.2858
     29 C          22.8889   73.8021   -1.3999 C.3     1  UNL1        0.2704
     30 C          23.2911   75.2012   -0.9307 C.3     1  UNL1        0.1967
     31 C          24.5837   75.1011   -0.1150 C.3     1  UNL1        0.1715
     32 C          24.3795   74.0720    1.0025 C.3     1  UNL1        0.1694
     33 C          23.8963   72.7569    0.3859 C.3     1  UNL1        0.1761
     34 O          23.5030   76.0438   -2.0649 O.3     1  UNL1       -0.3775
     35 O          24.8928   76.3755    0.4532 O.3     1  UNL1       -0.3794
     36 O          23.4057   74.5578    1.9274 O.3     1  UNL1       -0.3794
     37 O          22.6473   72.9641   -0.2721 O.3     1  UNL1       -0.3258
     38 H          22.6680   76.0719   -2.5515 H       1  UNL1        0.2106
     39 H          25.0005   76.9913   -0.2826 H       1  UNL1        0.2105
     40 H          23.7487   75.3871    2.2851 H       1  UNL1        0.2105
     41 C          23.7221   71.7116    1.4899 C.3     1  UNL1        0.1693
     42 O          23.3589   70.4593    0.9060 O.3     1  UNL1       -0.3794
     43 H          23.2597   69.8297    1.6333 H       1  UNL1        0.2105
@<TRIPOS>BOND
     1    15    16   ar
     2    15    20   ar
     3    15     6    1
     4    16    17   ar
     5    16    21    2
     6    17    18   ar
     7    17    23    1
     8    18    19   ar
     9    18    22    2
    10    19    20   ar
    11     6     7    1
    12     6    11    1
    13     7     8    1
    14     7     9    1
    15     8    13    1
    16     9    10    1
    17     9    12    1
    18    10    11    1
    19    10     5    1
    20    12    14    1
    21     5     4    1
    22     4     1    1
    23     1     2    2
    24     1     3    1
    25     1    24    1
    26    24    25    1
    27    25    26    2
    28    25    27    1
    29    25    28    1
    30    28    29    1
    31    29    30    1
    32    29    37    1
    33    30    31    1
    34    30    34    1
    35    31    32    1
    36    31    35    1
    37    32    33    1
    38    32    36    1
    39    33    41    1
    40    33    37    1
    41    41    42    1
    42    34    38    1
    43    35    39    1
    44    36    40    1
    45    42    43    1
@<TRIPOS>MOLECULE
GDU
 43 45 0 0 0
SMALL
GASTEIGER

@<TRIPOS>ATOM
      1 P          20.7132   71.3751   -1.0399 P.3     1  UNL1        0.2189
      2 O          21.1273   72.7882   -0.8941 O.2     1  UNL1       -0.5170
      3 O          20.8570   70.6248    0.3776 O.3     1  UNL1       -0.4371
      4 O          19.1819   71.3118   -1.5276 O.3     1  UNL1       -0.3112
      5 C          19.1130   70.3127   -2.5462 C.3     1  UNL1        0.1811
      6 C          17.2753   70.4677   -5.6327 C.3     1  UNL1        0.2383
      7 C          17.0727   69.0148   -5.1317 C.3     1  UNL1        0.1895
      8 O          15.8035   68.5046   -5.5467 O.3     1  UNL1       -0.3779
      9 C          17.1206   69.1925   -3.5918 C.3     1  UNL1        0.1713
     10 C          17.8570   70.5301   -3.3921 C.3     1  UNL1        0.1764
     11 O          18.2236   71.0185   -4.6942 O.3     1  UNL1       -0.3308
     12 O          15.7979   69.2569   -3.0549 O.3     1  UNL1       -0.3794
     13 H          15.7405   67.6019   -5.2048 H       1  UNL1        0.2106
     14 H          15.3699   68.4153   -3.2630 H       1  UNL1        0.2105
     15 N          17.8272   70.4759   -6.9885 N.ar    1  UNL1       -0.2551
     16 C          16.9976   70.4431   -8.0463 C.ar    1  UNL1        0.3323
     17 N          17.4792   70.4533   -9.3033 N.ar    1  UNL1       -0.2743
     18 C          18.8078   70.4867   -9.5222 C.ar    1  UNL1        0.2626
     19 C          19.6937   70.5156   -8.4174 C.ar    1  UNL1        0.0795
     20 C          19.1840   70.5089   -7.1674 C.ar    1  UNL1        0.0869
     21 O          15.7967   70.4133   -7.8646 O.2     1  UNL1       -0.2464
     22 O          19.2448   70.4912  -10.6595 O.2     1  UNL1       -0.2670
     23 H          16.8658   70.4337  -10.0550 H       1  UNL1        0.1734
     24 O          21.6544   70.6505   -2.1270 O.3     1  UNL1       -0.2703
     25 P          22.9784   71.5535   -2.2737 P.3     1  UNL1        0.2208
     26 O          23.4194   72.0032   -0.9349 O.2     1  UNL1       -0.5170
     27 O          24.1478   70.6834   -2.9591 O.3     1  UNL1       -0.4371
     28 O          22.6562   72.8351   -3.1922 O.3     1  UNL1       -0.2858
     29 C          23.8273   73.0951   -3.9672 C.3     1  UNL1        0.2704
     30 C          24.2846   74.5354   -3.7312 C.3     1  UNL1        0.1967
     31 C          23.1524   75.4889   -4.1254 C.3     1  UNL1        0.1715
     32 C          22.7196   75.1688   -5.5606 C.3     1  UNL1        0.1694
     33 C          22.3789   73.6797   -5.6574 C.3     1  UNL1        0.1761
     34 O          24.6053   74.7157   -2.3507 O.3     1  UNL1       -0.3775
     35 O          23.6141   76.8394   -4.0505 O.3     1  UNL1       -0.3794
     36 O          23.7836   75.4800   -6.4612 O.3     1  UNL1       -0.3794
     37 O          23.5337   72.9006   -5.3487 O.3     1  UNL1       -0.3258
     38 H          25.3153   74.0923   -2.1455 H       1  UNL1        0.2106
     39 H          23.8860   76.9919   -3.1367 H       1  UNL1        0.2105
     40 H          23.9675   76.4232   -6.3621 H       1  UNL1        0.2105
     41 C          21.9124   73.3563   -7.0786 C.3     1  UNL1        0.1693
     42 O          21.2369   74.4895   -7.6268 O.3     1  UNL1       -0.3794
     43 H          20.9605   74.2451   -8.5207 H       1  UNL1        0.2105
@<TRIPOS>BOND
     1    15    16   ar
     2    15    20   ar
     3    15     6    1
     4    16    17   ar
     5    16    21    2
     6    17    18   ar
     7    17    23    1
     8    18    19   ar
     9    18    22    2
    10    19    20   ar
    11     6     7    1
    12     6    11    1
    13     7     8    1
    14     7     9    1
    15     8    13    1
    16     9    10    1
    17     9    12    1
    18    10    11    1
    19    10     5    1
    20    12    14    1
    21     5     4    1
    22     4     1    1
    23     1     2    2
    24     1     3    1
    25     1    24    1
    26    24    25    1
    27    25    26    2
    28    25    27    1
    29    25    28    1
    30    28    29    1
    31    29    30    1
    32    29    37    1
    33    30    31    1
    34    30    34    1
    35    31    32    1
    36    31    35    1
    37    32    33    1
    38    32    36    1
    39    33    41    1
    40    33    37    1
    41    41    42    1
    42    34    38    1
    43    35    39    1
    44    36    40    1
    45    42    43    1
@<TRIPOS>MOLECULE
GDU
 43 45 0 0 0
SMALL
GASTEIGER

@<TRIPOS>ATOM
      1 P          23.1801   73.0399   -4.3669 P.3     1  UNL1        0.2189
      2 O          24.5169   72.4998   -4.0342 O.2     1  UNL1       -0.5170
      3 O          23.3342   74.5345   -4.9461 O.3     1  UNL1       -0.4371
      4 O          22.4832   72.1044   -5.4741 O.3     1  UNL1       -0.3112
      5 C          22.6796   72.7419   -6.7373 C.3     1  UNL1        0.1811
      6 C          19.1376   72.2659   -7.1309 C.3     1  UNL1        0.2383
      7 C          19.2638   73.5248   -6.2352 C.3     1  UNL1        0.1895
      8 O          18.1703   74.4187   -6.4549 O.3     1  UNL1       -0.3779
      9 C          20.5947   74.1459   -6.7334 C.3     1  UNL1        0.1713
     10 C          21.3253   72.9715   -7.4107 C.3     1  UNL1        0.1764
     11 O          20.4993   71.8043   -7.2571 O.3     1  UNL1       -0.3308
     12 O          20.3373   75.1919   -7.6723 O.3     1  UNL1       -0.3794
     13 H          18.3082   75.1770   -5.8702 H       1  UNL1        0.2106
     14 H          19.8279   75.8682   -7.2054 H       1  UNL1        0.2105
     15 N          18.3066   71.2501   -6.4824 N.ar    1  UNL1       -0.2551
     16 C          17.5540   70.4259   -7.2326 C.ar    1  UNL1        0.3323
     17 N          16.7839   69.4811   -6.6615 N.ar    1  UNL1       -0.2743
     18 C          16.7473   69.3523   -5.3212 C.ar    1  UNL1        0.2626
     19 C          17.5304   70.2172   -4.5182 C.ar    1  UNL1        0.0795
     20 C          18.2971   71.1533   -5.1169 C.ar    1  UNL1        0.0869
     21 O          17.5770   70.5299   -8.4428 O.2     1  UNL1       -0.2464
     22 O          16.0469   68.5005   -4.8032 O.2     1  UNL1       -0.2670
     23 H          16.2504   68.8921   -7.2184 H       1  UNL1        0.1734
     24 O          22.2696   73.0717   -3.0393 O.3     1  UNL1       -0.2703
     25 P          22.6653   71.7759   -2.1709 P.3     1  UNL1        0.2208
     26 O          21.5646   70.7889   -2.2283 O.2     1  UNL1       -0.5170
     27 O          24.0074   71.1177   -2.7707 O.3     1  UNL1       -0.4371
     28 O          22.9190   72.2100   -0.6421 O.3     1  UNL1       -0.2858
     29 C          23.0633   71.0061    0.1127 C.3     1  UNL1        0.2704
     30 C          21.8895   70.8702    1.0837 C.3     1  UNL1        0.1967
     31 C          21.8650   72.0898    2.0102 C.3     1  UNL1        0.1715
     32 C          23.2422   72.2334    2.6677 C.3     1  UNL1        0.1694
     33 C          24.3140   72.2680    1.5755 C.3     1  UNL1        0.1761
     34 O          20.6661   70.8008    0.3490 O.3     1  UNL1       -0.3775
     35 O          20.8665   71.9083    3.0165 O.3     1  UNL1       -0.3794
     36 O          23.4746   71.1242    3.5371 O.3     1  UNL1       -0.3794
     37 O          24.2898   71.0465    0.8384 O.3     1  UNL1       -0.3258
     38 H          20.7287   70.0248   -0.2244 H       1  UNL1        0.2106
     39 H          20.0221   71.8108    2.5584 H       1  UNL1        0.2105
     40 H          22.7748   71.1390    4.2029 H       1  UNL1        0.2105
     41 C          25.6907   72.4457    2.2198 C.3     1  UNL1        0.1693
     42 O          25.9560   73.8381    2.3984 O.3     1  UNL1       -0.3794
     43 H          26.8301   73.9064    2.8065 H       1  UNL1        0.2105
@<TRIPOS>BOND
     1    15    16   ar
     2    15    20   ar
     3    15     6    1
     4    16    17   ar
     5    16    21    2
     6    17    18   ar
     7    17    23    1
     8    18    19   ar
     9    18    22    2
    10    19    20   ar
    11     6     7    1
    12     6    11    1
    13     7     8    1
    14     7     9    1
    15     8    13    1
    16     9    10    1
    17     9    12    1
    18    10    11    1
    19    10     5    1
    20    12    14    1
    21     5     4    1
    22     4     1    1
    23     1     2    2
    24     1     3    1
    25     1    24    1
    26    24    25    1
    27    25    26    2
    28    25    27    1
    29    25    28    1
    30    28    29    1
    31    29    30    1
    32    29    37    1
    33    30    31    1
    34    30    34    1
    35    31    32    1
    36    31    35    1
    37    32    33    1
    38    32    36    1
    39    33    41    1
    40    33    37    1
    41    41    42    1
    42    34    38    1
    43    35    39    1
    44    36    40    1
    45    42    43    1
@<TRIPOS>MOLECULE
GDU
 43 45 0 0 0
SMALL
GASTEIGER

@<TRIPOS>ATOM
      1 P          17.2595   72.2996   -2.1626 P.3     1  UNL1        0.2189
      2 O          17.7616   72.9415   -0.9275 O.2     1  UNL1       -0.5170
      3 O          17.7279   70.7593   -2.1953 O.3     1  UNL1       -0.4371
      4 O          15.6531   72.3726   -2.1910 O.3     1  UNL1       -0.3112
      5 C          15.1848   71.6207   -1.0703 C.3     1  UNL1        0.1811
      6 C          12.8800   68.8954   -0.6369 C.3     1  UNL1        0.2383
      7 C          12.0834   70.1518   -0.2010 C.3     1  UNL1        0.1895
      8 O          10.6892   69.9910   -0.4720 O.3     1  UNL1       -0.3779
      9 C          12.6983   71.2549   -1.1012 C.3     1  UNL1        0.1713
     10 C          14.0648   70.6796   -1.5175 C.3     1  UNL1        0.1764
     11 O          14.2106   69.4041   -0.8694 O.3     1  UNL1       -0.3308
     12 O          11.8740   71.4824   -2.2460 O.3     1  UNL1       -0.3794
     13 H          10.2526   70.8029   -0.1787 H       1  UNL1        0.2106
     14 H          11.0159   71.7838   -1.9180 H       1  UNL1        0.2105
     15 N          12.8901   67.8927    0.4295 N.ar    1  UNL1       -0.2551
     16 C          11.9824   66.9006    0.4206 C.ar    1  UNL1        0.3323
     17 N          11.9723   65.9640    1.3874 N.ar    1  UNL1       -0.2743
     18 C          12.8703   66.0120    2.3901 C.ar    1  UNL1        0.2626
     19 C          13.8286   67.0546    2.4156 C.ar    1  UNL1        0.0795
     20 C          13.8192   67.9785    1.4313 C.ar    1  UNL1        0.0869
     21 O          11.1664   66.8439   -0.4777 O.2     1  UNL1       -0.2464
     22 O          12.8588   65.1674    3.2682 O.2     1  UNL1       -0.2670
     23 H          11.3127   65.2525    1.3628 H       1  UNL1        0.1734
     24 O          17.8558   73.0677   -3.4459 O.3     1  UNL1       -0.2703
     25 P          17.1403   72.4361   -4.7418 P.3     1  UNL1        0.2208
     26 O          16.5570   71.1223   -4.3917 O.2     1  UNL1       -0.5170
     27 O          15.9722   73.4245   -5.2447 O.3     1  UNL1       -0.4371
     28 O          18.2244   72.2474   -5.9161 O.3     1  UNL1       -0.2858
     29 C          18.7772   70.9393   -5.7642 C.3     1  UNL1        0.2704
     30 C          20.2894   71.0461   -5.5611 C.3     1  UNL1        0.1967
     31 C          20.9059   71.7567   -6.7700 C.3     1  UNL1        0.1715
     32 C          20.4689   71.0249   -8.0440 C.3     1  UNL1        0.1694
     33 C          18.9418   70.9214   -8.0597 C.3     1  UNL1        0.1761
     34 O          20.5613   71.7938   -4.3745 O.3     1  UNL1       -0.3775
     35 O          22.3310   71.7338   -6.6651 O.3     1  UNL1       -0.3794
     36 O          21.0415   69.7165   -8.0637 O.3     1  UNL1       -0.3794
     37 O          18.4987   70.1691   -6.9312 O.3     1  UNL1       -0.3258
     38 H          20.1497   71.3148   -3.6424 H       1  UNL1        0.2106
     39 H          22.5588   72.1928   -5.8467 H       1  UNL1        0.2105
     40 H          22.0006   69.8305   -8.0470 H       1  UNL1        0.2105
     41 C          18.4928   70.2223   -9.3448 C.3     1  UNL1        0.1693
     42 O          19.2860   70.6844  -10.4395 O.3     1  UNL1       -0.3794
     43 H          18.9725   70.2202  -11.2279 H       1  UNL1        0.2105
@<TRIPOS>BOND
     1    15    16   ar
     2    15    20   ar
     3    15     6    1
     4    16    17   ar
     5    16    21    2
     6    17    18   ar
     7    17    23    1
     8    18    19   ar
     9    18    22    2
    10    19    20   ar
    11     6     7    1
    12     6    11    1
    13     7     8    1
    14     7     9    1
    15     8    13    1
    16     9    10    1
    17     9    12    1
    18    10    11    1
    19    10     5    1
    20    12    14    1
    21     5     4    1
    22     4     1    1
    23     1     2    2
    24     1     3    1
    25     1    24    1
    26    24    25    1
    27    25    26    2
    28    25    27    1
    29    25    28    1
    30    28    29    1
    31    29    30    1
    32    29    37    1
    33    30    31    1
    34    30    34    1
    35    31    32    1
    36    31    35    1
    37    32    33    1
    38    32    36    1
    39    33    41    1
    40    33    37    1
    41    41    42    1
    42    34    38    1
    43    35    39    1
    44    36    40    1
    45    42    43    1
@<TRIPOS>MOLECULE
GDU
 43 45 0 0 0
SMALL
GASTEIGER

@<TRIPOS>ATOM
      1 P          15.9617   69.6763   -2.4511 P.3     1  UNL1        0.2189
      2 O          16.5765   70.9841   -2.1327 O.2     1  UNL1       -0.5170
      3 O          16.7556   68.5078   -1.6783 O.3     1  UNL1       -0.4371
      4 O          14.4225   69.6787   -1.9844 O.3     1  UNL1       -0.3112
      5 C          14.4210   69.5418   -0.5625 C.3     1  UNL1        0.1811
      6 C          11.1055   68.1682   -0.3439 C.3     1  UNL1        0.2383
      7 C          11.8760   67.5139    0.8314 C.3     1  UNL1        0.1895
      8 O          10.9978   67.2345    1.9241 O.3     1  UNL1       -0.3779
      9 C          12.8939   68.6214    1.2091 C.3     1  UNL1        0.1713
     10 C          12.9789   69.4982   -0.0541 C.3     1  UNL1        0.1764
     11 O          12.1279   68.9034   -1.0492 O.3     1  UNL1       -0.3308
     12 O          12.4165   69.3803    2.3218 O.3     1  UNL1       -0.3794
     13 H          11.5366   66.8303    2.6185 H       1  UNL1        0.2106
     14 H          12.3284   68.7657    3.0629 H       1  UNL1        0.2105
     15 N          10.5154   67.1457   -1.2094 N.ar    1  UNL1       -0.2551
     16 C           9.5567   67.4881   -2.0880 C.ar    1  UNL1        0.3323
     17 N           9.0003   66.5679   -2.8978 N.ar    1  UNL1       -0.2743
     18 C           9.3906   65.2804   -2.8332 C.ar    1  UNL1        0.2626
     19 C          10.3954   64.9042   -1.9085 C.ar    1  UNL1        0.0795
     20 C          10.9397   65.8479   -1.1112 C.ar    1  UNL1        0.0869
     21 O           9.1946   68.6457   -2.1580 O.2     1  UNL1       -0.2464
     22 O           8.8841   64.4460   -3.5625 O.2     1  UNL1       -0.2670
     23 H           8.3126   66.8335   -3.5289 H       1  UNL1        0.1734
     24 O          16.0421   69.4189   -4.0384 O.3     1  UNL1       -0.2703
     25 P          17.1117   70.4671   -4.6276 P.3     1  UNL1        0.2208
     26 O          16.5425   71.8319   -4.5794 O.2     1  UNL1       -0.5170
     27 O          18.4566   70.4156   -3.7429 O.3     1  UNL1       -0.4371
     28 O          17.4582   70.0826   -6.1514 O.3     1  UNL1       -0.2858
     29 C          17.6613   71.3099   -6.8532 C.3     1  UNL1        0.2704
     30 C          17.3370   71.1091   -8.3343 C.3     1  UNL1        0.1967
     31 C          18.2406   70.0080   -8.8978 C.3     1  UNL1        0.1715
     32 C          19.6992   70.3669   -8.5922 C.3     1  UNL1        0.1694
     33 C          19.8447   70.6222   -7.0900 C.3     1  UNL1        0.1761
     34 O          15.9679   70.7265   -8.4769 O.3     1  UNL1       -0.3775
     35 O          18.0537   69.9101  -10.3113 O.3     1  UNL1       -0.3794
     36 O          20.0647   71.5410   -9.3189 O.3     1  UNL1       -0.3794
     37 O          19.0186   71.7204   -6.7061 O.3     1  UNL1       -0.3258
     38 H          15.4375   71.4436   -8.1037 H       1  UNL1        0.2106
     39 H          17.1236   69.6957  -10.4564 H       1  UNL1        0.2105
     40 H          19.9523   71.3362  -10.2563 H       1  UNL1        0.2105
     41 C          21.3051   70.9480   -6.7689 C.3     1  UNL1        0.1693
     42 O          21.7066   72.1056   -7.5035 O.3     1  UNL1       -0.3794
     43 H          22.6301   72.2771   -7.2729 H       1  UNL1        0.2105
@<TRIPOS>BOND
     1    15    16   ar
     2    15    20   ar
     3    15     6    1
     4    16    17   ar
     5    16    21    2
     6    17    18   ar
     7    17    23    1
     8    18    19   ar
     9    18    22    2
    10    19    20   ar
    11     6     7    1
    12     6    11    1
    13     7     8    1
    14     7     9    1
    15     8    13    1
    16     9    10    1
    17     9    12    1
    18    10    11    1
    19    10     5    1
    20    12    14    1
    21     5     4    1
    22     4     1    1
    23     1     2    2
    24     1     3    1
    25     1    24    1
    26    24    25    1
    27    25    26    2
    28    25    27    1
    29    25    28    1
    30    28    29    1
    31    29    30    1
    32    29    37    1
    33    30    31    1
    34    30    34    1
    35    31    32    1
    36    31    35    1
    37    32    33    1
    38    32    36    1
    39    33    41    1
    40    33    37    1
    41    41    42    1
    42    34    38    1
    43    35    39    1
    44    36    40    1
    45    42    43    1
@<TRIPOS>MOLECULE
GDU
 43 45 0 0 0
SMALL
GASTEIGER

@<TRIPOS>ATOM
      1 P          19.6379   73.3331   -3.3479 P.3     1  UNL1        0.2189
      2 O          19.1741   73.9755   -4.5976 O.2     1  UNL1       -0.5170
      3 O          19.2352   74.2540   -2.0898 O.3     1  UNL1       -0.4371
      4 O          18.9472   71.8884   -3.1984 O.3     1  UNL1       -0.3112
      5 C          17.5974   72.1153   -2.7897 C.3     1  UNL1        0.1811
      6 C          16.7021   70.4787   -5.8634 C.3     1  UNL1        0.2383
      7 C          17.2123   69.3361   -4.9484 C.3     1  UNL1        0.1895
      8 O          16.5489   68.1065   -5.2503 O.3     1  UNL1       -0.3779
      9 C          16.8156   69.8470   -3.5388 C.3     1  UNL1        0.1713
     10 C          16.6467   71.3663   -3.7252 C.3     1  UNL1        0.1764
     11 O          16.9676   71.6706   -5.0937 O.3     1  UNL1       -0.3308
     12 O          15.5883   69.2484   -3.1176 O.3     1  UNL1       -0.3794
     13 H          16.9102   67.4399   -4.6494 H       1  UNL1        0.2106
     14 H          15.7414   68.2947   -3.0768 H       1  UNL1        0.2105
     15 N          17.4449   70.5031   -7.1245 N.ar    1  UNL1       -0.2551
     16 C          16.7770   70.5207   -8.2915 C.ar    1  UNL1        0.3323
     17 N          17.4359   70.5468   -9.4650 N.ar    1  UNL1       -0.2743
     18 C          18.7826   70.5458   -9.4889 C.ar    1  UNL1        0.2626
     19 C          19.4994   70.5216   -8.2675 C.ar    1  UNL1        0.0795
     20 C          18.8137   70.4999   -7.1048 C.ar    1  UNL1        0.0869
     21 O          15.5621   70.5224   -8.2859 O.2     1  UNL1       -0.2464
     22 O          19.3799   70.5646  -10.5507 O.2     1  UNL1       -0.2670
     23 H          16.9378   70.5636  -10.2977 H       1  UNL1        0.1734
     24 O          21.2382   73.1621   -3.3956 O.3     1  UNL1       -0.2703
     25 P          21.5924   71.8457   -2.5402 P.3     1  UNL1        0.2208
     26 O          20.9027   70.6758   -3.1274 O.2     1  UNL1       -0.5170
     27 O          23.1839   71.5997   -2.5687 O.3     1  UNL1       -0.4371
     28 O          21.1089   72.0469   -1.0185 O.3     1  UNL1       -0.2858
     29 C          22.2871   72.1114   -0.2138 C.3     1  UNL1        0.2704
     30 C          21.9744   71.5895    1.1895 C.3     1  UNL1        0.1967
     31 C          20.8555   72.4393    1.7997 C.3     1  UNL1        0.1715
     32 C          21.2664   73.9143    1.7289 C.3     1  UNL1        0.1694
     33 C          21.6311   74.2606    0.2832 C.3     1  UNL1        0.1761
     34 O          21.5534   70.2265    1.1104 O.3     1  UNL1       -0.3775
     35 O          20.6531   72.0596    3.1625 O.3     1  UNL1       -0.3794
     36 O          22.3932   74.1377    2.5776 O.3     1  UNL1       -0.3794
     37 O          22.7360   73.4625   -0.1389 O.3     1  UNL1       -0.3258
     38 H          22.2837   69.7314    0.7150 H       1  UNL1        0.2106
     39 H          20.4091   71.1254    3.1595 H       1  UNL1        0.2105
     40 H          22.1198   73.9018    3.4737 H       1  UNL1        0.2105
     41 C          22.0101   75.7407    0.1951 C.3     1  UNL1        0.1693
     42 O          21.1982   76.4939    1.0976 O.3     1  UNL1       -0.3794
     43 H          21.4684   77.4185    1.0121 H       1  UNL1        0.2105
@<TRIPOS>BOND
     1    15    16   ar
     2    15    20   ar
     3    15     6    1
     4    16    17   ar
     5    16    21    2
     6    17    18   ar
     7    17    23    1
     8    18    19   ar
     9    18    22    2
    10    19    20   ar
    11     6     7    1
    12     6    11    1
    13     7     8    1
    14     7     9    1
    15     8    13    1
    16     9    10    1
    17     9    12    1
    18    10    11    1
    19    10     5    1
    20    12    14    1
    21     5     4    1
    22     4     1    1
    23     1     2    2
    24     1     3    1
    25     1    24    1
    26    24    25    1
    27    25    26    2
    28    25    27    1
    29    25    28    1
    30    28    29    1
    31    29    30    1
    32    29    37    1
    33    30    31    1
    34    30    34    1
    35    31    32    1
    36    31    35    1
    37    32    33    1
    38    32    36    1
    39    33    41    1
    40    33    37    1
    41    41    42    1
    42    34    38    1
    43    35    39    1
    44    36    40    1
    45    42    43    1
@<TRIPOS>MOLECULE
GDU
 43 45 0 0 0
SMALL
GASTEIGER

@<TRIPOS>ATOM
      1 P          21.3902   71.2935   -0.3889 P.3     1  UNL1        0.2189
      2 O          21.2585   70.2324    0.6340 O.2     1  UNL1       -0.5170
      3 O          22.4554   70.8333   -1.5053 O.3     1  UNL1       -0.4371
      4 O          19.9623   71.5502   -1.0832 O.3     1  UNL1       -0.3112
      5 C          20.0377   71.0013   -2.3999 C.3     1  UNL1        0.1811
      6 C          17.7552   70.7302   -5.1647 C.3     1  UNL1        0.2383
      7 C          17.7380   69.3267   -4.5067 C.3     1  UNL1        0.1895
      8 O          16.4627   68.7022   -4.6710 O.3     1  UNL1       -0.3779
      9 C          18.0010   69.6635   -3.0159 C.3     1  UNL1        0.1713
     10 C          18.6574   71.0559   -3.0569 C.3     1  UNL1        0.1764
     11 O          18.7889   71.4295   -4.4395 O.3     1  UNL1       -0.3308
     12 O          16.7717   69.7037   -2.2884 O.3     1  UNL1       -0.3794
     13 H          16.5186   67.8370   -4.2418 H       1  UNL1        0.2106
     14 H          16.3813   68.8213   -2.3492 H       1  UNL1        0.2105
     15 N          18.0973   70.6324   -6.5846 N.ar    1  UNL1       -0.2551
     16 C          17.1182   70.5387   -7.5015 C.ar    1  UNL1        0.3323
     17 N          17.4056   70.4512   -8.8136 N.ar    1  UNL1       -0.2743
     18 C          18.6864   70.4462   -9.2303 C.ar    1  UNL1        0.2626
     19 C          19.7284   70.5385   -8.2753 C.ar    1  UNL1        0.0795
     20 C          19.4121   70.6294   -6.9661 C.ar    1  UNL1        0.0869
     21 O          15.9580   70.5424   -7.1408 O.2     1  UNL1       -0.2464
     22 O          18.9476   70.3622  -10.4174 O.2     1  UNL1       -0.2670
     23 H          16.6861   70.3886   -9.4619 H       1  UNL1        0.1734
     24 O          21.9003   72.6512    0.3102 O.3     1  UNL1       -0.2703
     25 P          21.8017   72.4229    1.9002 P.3     1  UNL1        0.2208
     26 O          20.4057   72.0963    2.2658 O.2     1  UNL1       -0.5170
     27 O          22.7666   71.2064    2.3283 O.3     1  UNL1       -0.4371
     28 O          22.2583   73.7632    2.6653 O.3     1  UNL1       -0.2858
     29 C          23.4885   73.4648    3.3266 C.3     1  UNL1        0.2704
     30 C          23.2947   73.5813    4.8392 C.3     1  UNL1        0.1967
     31 C          22.8312   75.0023    5.1746 C.3     1  UNL1        0.1715
     32 C          23.8245   75.9983    4.5656 C.3     1  UNL1        0.1694
     33 C          23.9767   75.6994    3.0721 C.3     1  UNL1        0.1761
     34 O          22.3091   72.6407    5.2693 O.3     1  UNL1       -0.3775
     35 O          22.7872   75.1708    6.5931 O.3     1  UNL1       -0.3794
     36 O          25.0900   75.8687    5.2151 O.3     1  UNL1       -0.3794
     37 O          24.4923   74.3808    2.8951 O.3     1  UNL1       -0.3258
     38 H          22.6386   71.7632    5.0322 H       1  UNL1        0.2106
     39 H          22.1617   74.5186    6.9331 H       1  UNL1        0.2105
     40 H          24.9451   76.0595    6.1510 H       1  UNL1        0.2105
     41 C          24.9407   76.7103    2.4471 C.3     1  UNL1        0.1693
     42 O          26.2743   76.2029    2.5189 O.3     1  UNL1       -0.3794
     43 H          26.8488   76.8677    2.1150 H       1  UNL1        0.2105
@<TRIPOS>BOND
     1    15    16   ar
     2    15    20   ar
     3    15     6    1
     4    16    17   ar
     5    16    21    2
     6    17    18   ar
     7    17    23    1
     8    18    19   ar
     9    18    22    2
    10    19    20   ar
    11     6     7    1
    12     6    11    1
    13     7     8    1
    14     7     9    1
    15     8    13    1
    16     9    10    1
    17     9    12    1
    18    10    11    1
    19    10     5    1
    20    12    14    1
    21     5     4    1
    22     4     1    1
    23     1     2    2
    24     1     3    1
    25     1    24    1
    26    24    25    1
    27    25    26    2
    28    25    27    1
    29    25    28    1
    30    28    29    1
    31    29    30    1
    32    29    37    1
    33    30    31    1
    34    30    34    1
    35    31    32    1
    36    31    35    1
    37    32    33    1
    38    32    36    1
    39    33    41    1
    40    33    37    1
    41    41    42    1
    42    34    38    1
    43    35    39    1
    44    36    40    1
    45    42    43    1
@<TRIPOS>MOLECULE
GDU
 43 45 0 0 0
SMALL
GASTEIGER

@<TRIPOS>ATOM
      1 P          23.5547   72.1646   -3.3925 P.3     1  UNL1        0.2189
      2 O          24.3110   72.9108   -4.4224 O.2     1  UNL1       -0.5170
      3 O          24.3362   70.8030   -3.0342 O.3     1  UNL1       -0.4371
      4 O          23.4154   73.0676   -2.0689 O.3     1  UNL1       -0.3112
      5 C          22.3452   72.5144   -1.3013 C.3     1  UNL1        0.1811
      6 C          24.2925   71.7519    1.6234 C.3     1  UNL1        0.2383
      7 C          22.8673   72.0294    2.1663 C.3     1  UNL1        0.1895
      8 O          22.6120   71.2613    3.3445 O.3     1  UNL1       -0.3779
      9 C          21.9737   71.5536    0.9914 C.3     1  UNL1        0.1713
     10 C          22.9128   71.5830   -0.2288 C.3     1  UNL1        0.1764
     11 O          24.1874   72.0749    0.2205 O.3     1  UNL1       -0.3308
     12 O          21.4962   70.2284    1.2318 O.3     1  UNL1       -0.3794
     13 H          21.7138   71.4792    3.6302 H       1  UNL1        0.2106
     14 H          20.9650   70.2642    2.0388 H       1  UNL1        0.2105
     15 N          25.2743   72.6169    2.2796 N.ar    1  UNL1       -0.2551
     16 C          26.4444   72.1014    2.6960 C.ar    1  UNL1        0.3323
     17 N          27.3657   72.8758    3.2990 N.ar    1  UNL1       -0.2743
     18 C          27.1243   74.1848    3.5047 C.ar    1  UNL1        0.2626
     19 C          25.8937   74.7403    3.0765 C.ar    1  UNL1        0.0795
     20 C          24.9891   73.9422    2.4706 C.ar    1  UNL1        0.0869
     21 O          26.6766   70.9224    2.5169 O.2     1  UNL1       -0.2464
     22 O          27.9556   74.8855    4.0546 O.2     1  UNL1       -0.2670
     23 H          28.2066   72.4879    3.5892 H       1  UNL1        0.1734
     24 O          22.0895   71.8081   -3.9571 O.3     1  UNL1       -0.2703
     25 P          21.8588   72.7185   -5.2640 P.3     1  UNL1        0.2208
     26 O          22.0031   74.1459   -4.9022 O.2     1  UNL1       -0.5170
     27 O          22.9514   72.3361   -6.3838 O.3     1  UNL1       -0.4371
     28 O          20.3814   72.4583   -5.8466 O.3     1  UNL1       -0.2858
     29 C          20.3564   71.1143   -6.3293 C.3     1  UNL1        0.2704
     30 C          19.8417   71.1001   -7.7695 C.3     1  UNL1        0.1967
     31 C          18.4383   71.7131   -7.8035 C.3     1  UNL1        0.1715
     32 C          17.5570   70.9764   -6.7885 C.3     1  UNL1        0.1694
     33 C          18.2447   71.0018   -5.4212 C.3     1  UNL1        0.1761
     34 O          20.7193   71.8635   -8.5990 O.3     1  UNL1       -0.3775
     35 O          17.8851   71.5736   -9.1138 O.3     1  UNL1       -0.3794
     36 O          17.3707   69.6244   -7.2100 O.3     1  UNL1       -0.3794
     37 O          19.5008   70.3298   -5.5016 O.3     1  UNL1       -0.3258
     38 H          21.5900   71.4470   -8.5417 H       1  UNL1        0.2106
     39 H          18.4760   72.0402   -9.7183 H       1  UNL1        0.2105
     40 H          16.9415   69.6575   -8.0748 H       1  UNL1        0.2105
     41 C          17.3567   70.2983   -4.3924 C.3     1  UNL1        0.1693
     42 O          16.0070   70.2830   -4.8606 O.3     1  UNL1       -0.3794
     43 H          15.4818   69.8316   -4.1857 H       1  UNL1        0.2105
@<TRIPOS>BOND
     1    15    16   ar
     2    15    20   ar
     3    15     6    1
     4    16    17   ar
     5    16    21    2
     6    17    18   ar
     7    17    23    1
     8    18    19   ar
     9    18    22    2
    10    19    20   ar
    11     6     7    1
    12     6    11    1
    13     7     8    1
    14     7     9    1
    15     8    13    1
    16     9    10    1
    17     9    12    1
    18    10    11    1
    19    10     5    1
    20    12    14    1
    21     5     4    1
    22     4     1    1
    23     1     2    2
    24     1     3    1
    25     1    24    1
    26    24    25    1
    27    25    26    2
    28    25    27    1
    29    25    28    1
    30    28    29    1
    31    29    30    1
    32    29    37    1
    33    30    31    1
    34    30    34    1
    35    31    32    1
    36    31    35    1
    37    32    33    1
    38    32    36    1
    39    33    41    1
    40    33    37    1
    41    41    42    1
    42    34    38    1
    43    35    39    1
    44    36    40    1
    45    42    43    1
@<TRIPOS>MOLECULE
GDU
 43 45 0 0 0
SMALL
GASTEIGER

@<TRIPOS>ATOM
      1 P          22.5749   71.4503   -2.7437 P.3     1  UNL1        0.2189
      2 O          22.1873   72.8783   -2.7332 O.2     1  UNL1       -0.5170
      3 O          24.0044   71.2877   -3.4670 O.3     1  UNL1       -0.4371
      4 O          22.6737   70.9095   -1.2323 O.3     1  UNL1       -0.3112
      5 C          21.3656   71.0160   -0.6684 C.3     1  UNL1        0.1811
      6 C          23.1142   71.8493    2.3607 C.3     1  UNL1        0.2383
      7 C          22.5069   73.1921    1.8800 C.3     1  UNL1        0.1895
      8 O          22.2019   74.0401    2.9896 O.3     1  UNL1       -0.3779
      9 C          21.2107   72.7259    1.1674 C.3     1  UNL1        0.1713
     10 C          21.4757   71.2445    0.8402 C.3     1  UNL1        0.1764
     11 O          22.8083   70.9369    1.2849 O.3     1  UNL1       -0.3308
     12 O          20.0860   72.8593    2.0387 O.3     1  UNL1       -0.3794
     13 H          21.8297   74.8547    2.6239 H       1  UNL1        0.2106
     14 H          20.0083   73.7986    2.2538 H       1  UNL1        0.2105
     15 N          24.5622   71.9700    2.5387 N.ar    1  UNL1       -0.2551
     16 C          25.3382   70.8752    2.4517 C.ar    1  UNL1        0.3323
     17 N          26.6726   70.9593    2.6078 N.ar    1  UNL1       -0.2743
     18 C          27.2536   72.1470    2.8649 C.ar    1  UNL1        0.2626
     19 C          26.4480   73.3077    2.9650 C.ar    1  UNL1        0.0795
     20 C          25.1128   73.1958    2.7999 C.ar    1  UNL1        0.0869
     21 O          24.8285   69.7971    2.2197 O.2     1  UNL1       -0.2464
     22 O          28.4608   72.2233    3.0111 O.2     1  UNL1       -0.2670
     23 H          27.2178   70.1596    2.5374 H       1  UNL1        0.1734
     24 O          21.4685   70.6008   -3.5478 O.3     1  UNL1       -0.2703
     25 P          20.8711   71.5706   -4.6848 P.3     1  UNL1        0.2208
     26 O          20.1163   72.6717   -4.0468 O.2     1  UNL1       -0.5170
     27 O          22.0792   72.1833   -5.5562 O.3     1  UNL1       -0.4371
     28 O          19.8895   70.7320   -5.6456 O.3     1  UNL1       -0.2858
     29 C          18.9558   71.6610   -6.1977 C.3     1  UNL1        0.2704
     30 C          17.5364   71.2543   -5.7985 C.3     1  UNL1        0.1967
     31 C          17.2598   69.8386   -6.3139 C.3     1  UNL1        0.1715
     32 C          17.5509   69.7992   -7.8184 C.3     1  UNL1        0.1694
     33 C          18.9711   70.3148   -8.0642 C.3     1  UNL1        0.1761
     34 O          17.4136   71.2797   -4.3753 O.3     1  UNL1       -0.3775
     35 O          15.8913   69.5007   -6.0783 O.3     1  UNL1       -0.3794
     36 O          16.6116   70.6246   -8.5086 O.3     1  UNL1       -0.3794
     37 O          19.0765   71.6661   -7.6182 O.3     1  UNL1       -0.3258
     38 H          17.6026   72.1856   -4.0951 H       1  UNL1        0.2106
     39 H          15.7512   69.5500   -5.1242 H       1  UNL1        0.2105
     40 H          15.7340   70.2672   -8.3209 H       1  UNL1        0.2105
     41 C          19.2844   70.2474   -9.5606 C.3     1  UNL1        0.1693
     42 O          18.6214   71.3189  -10.2339 O.3     1  UNL1       -0.3794
     43 H          18.8447   71.2410  -11.1717 H       1  UNL1        0.2105
@<TRIPOS>BOND
     1    15    16   ar
     2    15    20   ar
     3    15     6    1
     4    16    17   ar
     5    16    21    2
     6    17    18   ar
     7    17    23    1
     8    18    19   ar
     9    18    22    2
    10    19    20   ar
    11     6     7    1
    12     6    11    1
    13     7     8    1
    14     7     9    1
    15     8    13    1
    16     9    10    1
    17     9    12    1
    18    10    11    1
    19    10     5    1
    20    12    14    1
    21     5     4    1
    22     4     1    1
    23     1     2    2
    24     1     3    1
    25     1    24    1
    26    24    25    1
    27    25    26    2
    28    25    27    1
    29    25    28    1
    30    28    29    1
    31    29    30    1
    32    29    37    1
    33    30    31    1
    34    30    34    1
    35    31    32    1
    36    31    35    1
    37    32    33    1
    38    32    36    1
    39    33    41    1
    40    33    37    1
    41    41    42    1
    42    34    38    1
    43    35    39    1
    44    36    40    1
    45    42    43    1
@<TRIPOS>MOLECULE
GDU
 43 45 0 0 0
SMALL
GASTEIGER

@<TRIPOS>ATOM
      1 P          22.8271   72.6388   -3.9018 P.3     1  UNL1        0.2189
      2 O          22.4332   74.0632   -3.8297 O.2     1  UNL1       -0.5170
      3 O          24.4269   72.5314   -4.0509 O.3     1  UNL1       -0.4371
      4 O          22.3614   71.8842   -2.5600 O.3     1  UNL1       -0.3112
      5 C          23.3117   72.2173   -1.5469 C.3     1  UNL1        0.1811
      6 C          22.7869   74.3976    1.2635 C.3     1  UNL1        0.2383
      7 C          24.2329   74.7051    0.7971 C.3     1  UNL1        0.1895
      8 O          24.5751   76.0675    1.0616 O.3     1  UNL1       -0.3779
      9 C          24.1447   74.4432   -0.7289 C.3     1  UNL1        0.1713
     10 C          22.9103   73.5353   -0.8821 C.3     1  UNL1        0.1764
     11 O          22.3967   73.2805    0.4368 O.3     1  UNL1       -0.3308
     12 O          23.9619   75.6710   -1.4368 O.3     1  UNL1       -0.3794
     13 H          25.4823   76.1928    0.7497 H       1  UNL1        0.2106
     14 H          24.7380   76.2178   -1.2541 H       1  UNL1        0.2105
     15 N          22.7676   74.0235    2.6786 N.ar    1  UNL1       -0.2551
     16 C          22.0208   72.9808    3.0826 C.ar    1  UNL1        0.3323
     17 N          21.9882   72.6140    4.3773 N.ar    1  UNL1       -0.2743
     18 C          22.6998   73.2959    5.2954 C.ar    1  UNL1        0.2626
     19 C          23.4864   74.4001    4.8852 C.ar    1  UNL1        0.0795
     20 C          23.5044   74.7439    3.5799 C.ar    1  UNL1        0.0869
     21 O          21.3740   72.3557    2.2659 O.2     1  UNL1       -0.2464
     22 O          22.6672   72.9676    6.4683 O.2     1  UNL1       -0.2670
     23 H          21.4471   71.8561    4.6505 H       1  UNL1        0.1734
     24 O          22.1234   71.9522   -5.1769 O.3     1  UNL1       -0.2703
     25 P          20.6218   71.5776   -4.7358 P.3     1  UNL1        0.2208
     26 O          20.5693   70.1582   -4.3212 O.2     1  UNL1       -0.5170
     27 O          20.1758   72.5130   -3.5028 O.3     1  UNL1       -0.4371
     28 O          19.6226   71.8129   -5.9752 O.3     1  UNL1       -0.2858
     29 C          19.1729   70.5244   -6.3962 C.3     1  UNL1        0.2704
     30 C          19.7147   70.2282   -7.7955 C.3     1  UNL1        0.1967
     31 C          19.2256   71.3133   -8.7596 C.3     1  UNL1        0.1715
     32 C          17.6991   71.4076   -8.6577 C.3     1  UNL1        0.1694
     33 C          17.3100   71.6165   -7.1921 C.3     1  UNL1        0.1761
     34 O          21.1431   70.2220   -7.7643 O.3     1  UNL1       -0.3775
     35 O          19.5999   70.9723  -10.0961 O.3     1  UNL1       -0.3794
     36 O          17.1122   70.2002   -9.1454 O.3     1  UNL1       -0.3794
     37 O          17.7475   70.5030   -6.4145 O.3     1  UNL1       -0.3258
     38 H          21.4055   69.5307   -7.1412 H       1  UNL1        0.2106
     39 H          20.5634   70.9124  -10.1103 H       1  UNL1        0.2105
     40 H          17.3881   70.1071  -10.0665 H       1  UNL1        0.2105
     41 C          15.7891   71.7463   -7.0835 C.3     1  UNL1        0.1693
     42 O          15.4317   72.0329   -5.7302 O.3     1  UNL1       -0.3794
     43 H          14.4678   72.1074   -5.7051 H       1  UNL1        0.2105
@<TRIPOS>BOND
     1    15    16   ar
     2    15    20   ar
     3    15     6    1
     4    16    17   ar
     5    16    21    2
     6    17    18   ar
     7    17    23    1
     8    18    19   ar
     9    18    22    2
    10    19    20   ar
    11     6     7    1
    12     6    11    1
    13     7     8    1
    14     7     9    1
    15     8    13    1
    16     9    10    1
    17     9    12    1
    18    10    11    1
    19    10     5    1
    20    12    14    1
    21     5     4    1
    22     4     1    1
    23     1     2    2
    24     1     3    1
    25     1    24    1
    26    24    25    1
    27    25    26    2
    28    25    27    1
    29    25    28    1
    30    28    29    1
    31    29    30    1
    32    29    37    1
    33    30    31    1
    34    30    34    1
    35    31    32    1
    36    31    35    1
    37    32    33    1
    38    32    36    1
    39    33    41    1
    40    33    37    1
    41    41    42    1
    42    34    38    1
    43    35    39    1
    44    36    40    1
    45    42    43    1
@<TRIPOS>MOLECULE
GDU
 43 45 0 0 0
SMALL
GASTEIGER

@<TRIPOS>ATOM
      1 P          22.0188   71.9657   -3.8744 P.3     1  UNL1        0.2189
      2 O          22.5171   72.0460   -5.2654 O.2     1  UNL1       -0.5170
      3 O          22.4413   70.5500   -3.2340 O.3     1  UNL1       -0.4371
      4 O          22.6568   73.1595   -3.0056 O.3     1  UNL1       -0.3112
      5 C          21.9458   73.1957   -1.7672 C.3     1  UNL1        0.1811
      6 C          23.8213   71.8156    0.9724 C.3     1  UNL1        0.2383
      7 C          22.4246   72.1207    1.5716 C.3     1  UNL1        0.1895
      8 O          22.1051   71.1982    2.6157 O.3     1  UNL1       -0.3779
      9 C          21.4942   71.9151    0.3480 C.3     1  UNL1        0.1713
     10 C          22.4326   72.0607   -0.8644 C.3     1  UNL1        0.1764
     11 O          23.7441   72.3663   -0.3596 O.3     1  UNL1       -0.3308
     12 O          20.9063   70.6131    0.3805 O.3     1  UNL1       -0.3794
     13 H          21.2285   71.4419    2.9445 H       1  UNL1        0.2106
     14 H          20.3799   70.5636    1.1900 H       1  UNL1        0.2105
     15 N          24.8726   72.4796    1.7448 N.ar    1  UNL1       -0.2551
     16 C          25.7735   71.7414    2.4170 C.ar    1  UNL1        0.3323
     17 N          26.7522   72.3271    3.1319 N.ar    1  UNL1       -0.2743
     18 C          26.8389   73.6698    3.1935 C.ar    1  UNL1        0.2626
     19 C          25.8934   74.4601    2.4953 C.ar    1  UNL1        0.0795
     20 C          24.9246   73.8471    1.7824 C.ar    1  UNL1        0.0869
     21 O          25.7084   70.5291    2.3704 O.2     1  UNL1       -0.2464
     22 O          27.7215   74.2008    3.8443 O.2     1  UNL1       -0.2670
     23 H          27.3965   71.7788    3.6073 H       1  UNL1        0.1734
     24 O          20.4140   72.0967   -3.8718 O.3     1  UNL1       -0.2703
     25 P          19.8256   70.6297   -4.1741 P.3     1  UNL1        0.2208
     26 O          20.8638   69.8086   -4.8351 O.2     1  UNL1       -0.5170
     27 O          19.3901   69.9307   -2.7900 O.3     1  UNL1       -0.4371
     28 O          18.5430   70.7529   -5.1384 O.3     1  UNL1       -0.2858
     29 C          18.6588   71.9995   -5.8256 C.3     1  UNL1        0.2704
     30 C          17.2888   72.6768   -5.8859 C.3     1  UNL1        0.1967
     31 C          16.3058   71.7503   -6.6082 C.3     1  UNL1        0.1715
     32 C          16.9033   71.3651   -7.9662 C.3     1  UNL1        0.1694
     33 C          18.3028   70.7849   -7.7478 C.3     1  UNL1        0.1761
     34 O          16.8222   72.9318   -4.5598 O.3     1  UNL1       -0.3775
     35 O          15.0623   72.4274   -6.8027 O.3     1  UNL1       -0.3794
     36 O          16.9854   72.5233   -8.7980 O.3     1  UNL1       -0.3794
     37 O          19.1433   71.7689   -7.1465 O.3     1  UNL1       -0.3258
     38 H          17.4734   73.5113   -4.1415 H       1  UNL1        0.2106
     39 H          14.7305   72.6604   -5.9264 H       1  UNL1        0.2105
     40 H          16.0848   72.8568   -8.9031 H       1  UNL1        0.2105
     41 C          18.8950   70.3651   -9.0950 C.3     1  UNL1        0.1693
     42 O          17.8422   70.2004  -10.0466 O.3     1  UNL1       -0.3794
     43 H          18.2567   69.9372  -10.8798 H       1  UNL1        0.2105
@<TRIPOS>BOND
     1    15    16   ar
     2    15    20   ar
     3    15     6    1
     4    16    17   ar
     5    16    21    2
     6    17    18   ar
     7    17    23    1
     8    18    19   ar
     9    18    22    2
    10    19    20   ar
    11     6     7    1
    12     6    11    1
    13     7     8    1
    14     7     9    1
    15     8    13    1
    16     9    10    1
    17     9    12    1
    18    10    11    1
    19    10     5    1
    20    12    14    1
    21     5     4    1
    22     4     1    1
    23     1     2    2
    24     1     3    1
    25     1    24    1
    26    24    25    1
    27    25    26    2
    28    25    27    1
    29    25    28    1
    30    28    29    1
    31    29    30    1
    32    29    37    1
    33    30    31    1
    34    30    34    1
    35    31    32    1
    36    31    35    1
    37    32    33    1
    38    32    36    1
    39    33    41    1
    40    33    37    1
    41    41    42    1
    42    34    38    1
    43    35    39    1
    44    36    40    1
    45    42    43    1
@<TRIPOS>MOLECULE
GDU
 43 45 0 0 0
SMALL
GASTEIGER

@<TRIPOS>ATOM
      1 P          22.7362   73.6605   -4.5801 P.3     1  UNL1        0.2189
      2 O          23.4055   74.6531   -5.4497 O.2     1  UNL1       -0.5170
      3 O          23.4433   72.2251   -4.7613 O.3     1  UNL1       -0.4371
      4 O          22.8529   74.1261   -3.0450 O.3     1  UNL1       -0.3112
      5 C          21.7247   73.5797   -2.3600 C.3     1  UNL1        0.1811
      6 C          23.3769   71.6224    0.1632 C.3     1  UNL1        0.2383
      7 C          21.9469   71.8455    0.7182 C.3     1  UNL1        0.1895
      8 O          21.5380   70.7437    1.5319 O.3     1  UNL1       -0.3779
      9 C          21.1020   71.9176   -0.5803 C.3     1  UNL1        0.1713
     10 C          22.1263   72.2726   -1.6741 C.3     1  UNL1        0.1764
     11 O          23.4039   72.4300   -1.0328 O.3     1  UNL1       -0.3308
     12 O          20.4905   70.6544   -0.8493 O.3     1  UNL1       -0.3794
     13 H          20.6448   70.9442    1.8445 H       1  UNL1        0.2106
     14 H          19.9073   70.4609   -0.1029 H       1  UNL1        0.2105
     15 N          24.3824   72.0855    1.1210 N.ar    1  UNL1       -0.2551
     16 C          25.0901   71.1890    1.8307 C.ar    1  UNL1        0.3323
     17 N          26.0228   71.5884    2.7153 N.ar    1  UNL1       -0.2743
     18 C          26.2563   72.9003    2.9116 C.ar    1  UNL1        0.2626
     19 C          25.5143   73.8561    2.1753 C.ar    1  UNL1        0.0795
     20 C          24.5878   73.4282    1.2915 C.ar    1  UNL1        0.0869
     21 O          24.8910   70.0022    1.6641 O.2     1  UNL1       -0.2464
     22 O          27.0970   73.2628    3.7155 O.2     1  UNL1       -0.2670
     23 H          26.5273   70.9275    3.2158 H       1  UNL1        0.1734
     24 O          21.1837   73.5482   -4.9917 O.3     1  UNL1       -0.2703
     25 P          21.0237   72.1922   -5.8435 P.3     1  UNL1        0.2208
     26 O          22.1610   72.0616   -6.7808 O.2     1  UNL1       -0.5170
     27 O          21.0053   70.9296   -4.8436 O.3     1  UNL1       -0.4371
     28 O          19.6456   72.2379   -6.6734 O.3     1  UNL1       -0.2858
     29 C          18.9877   70.9894   -6.4545 C.3     1  UNL1        0.2704
     30 C          18.8972   70.2231   -7.7751 C.3     1  UNL1        0.1967
     31 C          18.1253   71.0703   -8.7914 C.3     1  UNL1        0.1715
     32 C          16.7796   71.4692   -8.1752 C.3     1  UNL1        0.1694
     33 C          17.0311   72.1433   -6.8242 C.3     1  UNL1        0.1761
     34 O          20.2126   69.9621   -8.2681 O.3     1  UNL1       -0.3775
     35 O          17.9048   70.3101   -9.9813 O.3     1  UNL1       -0.3794
     36 O          15.9744   70.3041   -7.9908 O.3     1  UNL1       -0.3794
     37 O          17.6786   71.2273   -5.9423 O.3     1  UNL1       -0.3258
     38 H          20.6631   69.4340   -7.5950 H       1  UNL1        0.2106
     39 H          18.7745   70.0718  -10.3263 H       1  UNL1        0.2105
     40 H          15.8473   69.9106   -8.8640 H       1  UNL1        0.2105
     41 C          15.6953   72.5766   -6.2159 C.3     1  UNL1        0.1693
     42 O          15.3450   71.6863   -5.1549 O.3     1  UNL1       -0.3794
     43 H          14.5000   71.9939   -4.7990 H       1  UNL1        0.2105
@<TRIPOS>BOND
     1    15    16   ar
     2    15    20   ar
     3    15     6    1
     4    16    17   ar
     5    16    21    2
     6    17    18   ar
     7    17    23    1
     8    18    19   ar
     9    18    22    2
    10    19    20   ar
    11     6     7    1
    12     6    11    1
    13     7     8    1
    14     7     9    1
    15     8    13    1
    16     9    10    1
    17     9    12    1
    18    10    11    1
    19    10     5    1
    20    12    14    1
    21     5     4    1
    22     4     1    1
    23     1     2    2
    24     1     3    1
    25     1    24    1
    26    24    25    1
    27    25    26    2
    28    25    27    1
    29    25    28    1
    30    28    29    1
    31    29    30    1
    32    29    37    1
    33    30    31    1
    34    30    34    1
    35    31    32    1
    36    31    35    1
    37    32    33    1
    38    32    36    1
    39    33    41    1
    40    33    37    1
    41    41    42    1
    42    34    38    1
    43    35    39    1
    44    36    40    1
    45    42    43    1
@<TRIPOS>MOLECULE
GDU
 43 45 0 0 0
SMALL
GASTEIGER

@<TRIPOS>ATOM
      1 P          20.7206   71.4132   -2.2697 P.3     1  UNL1        0.2189
      2 O          21.8922   70.6427   -2.7421 O.2     1  UNL1       -0.5170
      3 O          19.6731   70.4163   -1.5611 O.3     1  UNL1       -0.4371
      4 O          21.2006   72.5266   -1.2130 O.3     1  UNL1       -0.3112
      5 C          20.0390   72.9412   -0.4923 C.3     1  UNL1        0.1811
      6 C          22.2229   72.7953    2.3602 C.3     1  UNL1        0.2383
      7 C          22.1670   74.2994    1.9895 C.3     1  UNL1        0.1895
      8 O          22.3220   75.1171    3.1516 O.3     1  UNL1       -0.3779
      9 C          20.7377   74.4366    1.4032 C.3     1  UNL1        0.1713
     10 C          20.3579   72.9990    1.0027 C.3     1  UNL1        0.1764
     11 O          21.4875   72.1580    1.2941 O.3     1  UNL1       -0.3308
     12 O          19.8385   74.9417    2.3922 O.3     1  UNL1       -0.3794
     13 H          22.2784   76.0364    2.8535 H       1  UNL1        0.2106
     14 H          20.1623   75.8171    2.6443 H       1  UNL1        0.2105
     15 N          23.6071   72.3198    2.3880 N.ar    1  UNL1       -0.2551
     16 C          23.9000   71.0923    1.9234 C.ar    1  UNL1        0.3323
     17 N          25.1650   70.6325    1.9344 N.ar    1  UNL1       -0.2743
     18 C          26.1617   71.3955    2.4229 C.ar    1  UNL1        0.2626
     19 C          25.8671   72.6883    2.9209 C.ar    1  UNL1        0.0795
     20 C          24.5905   73.1265    2.8942 C.ar    1  UNL1        0.0869
     21 O          23.0116   70.3927    1.4792 O.2     1  UNL1       -0.2464
     22 O          27.3063   70.9783    2.4376 O.2     1  UNL1       -0.2670
     23 H          25.3589   69.7457    1.5911 H       1  UNL1        0.1734
     24 O          20.0111   72.1320   -3.5236 O.3     1  UNL1       -0.2703
     25 P          20.4647   71.3266   -4.8411 P.3     1  UNL1        0.2208
     26 O          21.8667   71.6673   -5.1690 O.2     1  UNL1       -0.5170
     27 O          20.3473   69.7435   -4.5690 O.3     1  UNL1       -0.4371
     28 O          19.5111   71.7303   -6.0730 O.3     1  UNL1       -0.2858
     29 C          18.7098   70.5859   -6.3698 C.3     1  UNL1        0.2704
     30 C          18.8446   70.2410   -7.8538 C.3     1  UNL1        0.1967
     31 C          18.3978   71.4453   -8.6883 C.3     1  UNL1        0.1715
     32 C          16.9912   71.8575   -8.2396 C.3     1  UNL1        0.1694
     33 C          16.9975   72.0820   -6.7255 C.3     1  UNL1        0.1761
     34 O          20.2070   69.9299   -8.1510 O.3     1  UNL1       -0.3775
     35 O          18.3779   71.0896  -10.0723 O.3     1  UNL1       -0.3794
     36 O          16.0622   70.8244   -8.5705 O.3     1  UNL1       -0.3794
     37 O          17.3472   70.8689   -6.0605 O.3     1  UNL1       -0.3258
     38 H          20.4470   69.1728   -7.5995 H       1  UNL1        0.2106
     39 H          19.2769   70.8268  -10.3067 H       1  UNL1        0.2105
     40 H          16.0963   70.7140   -9.5296 H       1  UNL1        0.2105
     41 C          15.6055   72.5275   -6.2718 C.3     1  UNL1        0.1693
     42 O          15.0524   73.4195   -7.2410 O.3     1  UNL1       -0.3794
     43 H          14.1773   73.6754   -6.9186 H       1  UNL1        0.2105
@<TRIPOS>BOND
     1    15    16   ar
     2    15    20   ar
     3    15     6    1
     4    16    17   ar
     5    16    21    2
     6    17    18   ar
     7    17    23    1
     8    18    19   ar
     9    18    22    2
    10    19    20   ar
    11     6     7    1
    12     6    11    1
    13     7     8    1
    14     7     9    1
    15     8    13    1
    16     9    10    1
    17     9    12    1
    18    10    11    1
    19    10     5    1
    20    12    14    1
    21     5     4    1
    22     4     1    1
    23     1     2    2
    24     1     3    1
    25     1    24    1
    26    24    25    1
    27    25    26    2
    28    25    27    1
    29    25    28    1
    30    28    29    1
    31    29    30    1
    32    29    37    1
    33    30    31    1
    34    30    34    1
    35    31    32    1
    36    31    35    1
    37    32    33    1
    38    32    36    1
    39    33    41    1
    40    33    37    1
    41    41    42    1
    42    34    38    1
    43    35    39    1
    44    36    40    1
    45    42    43    1
@<TRIPOS>MOLECULE
GDU
 43 45 0 0 0
SMALL
GASTEIGER

@<TRIPOS>ATOM
      1 P          18.8381   73.6282   -3.9821 P.3     1  UNL1        0.2189
      2 O          19.2103   73.3414   -5.3852 O.2     1  UNL1       -0.5170
      3 O          19.4334   75.0610   -3.5512 O.3     1  UNL1       -0.4371
      4 O          17.2357   73.6498   -3.8451 O.3     1  UNL1       -0.3112
      5 C          16.8776   72.5526   -3.0034 C.3     1  UNL1        0.1811
      6 C          16.6013   70.3558   -5.8363 C.3     1  UNL1        0.2383
      7 C          17.3471   69.5185   -4.7659 C.3     1  UNL1        0.1895
      8 O          17.0469   68.1280   -4.9059 O.3     1  UNL1       -0.3779
      9 C          16.7592   70.0811   -3.4457 C.3     1  UNL1        0.1713
     10 C          16.2061   71.4629   -3.8411 C.3     1  UNL1        0.1764
     11 O          16.5044   71.6638   -5.2336 O.3     1  UNL1       -0.3308
     12 O          15.7130   69.2352   -2.9642 O.3     1  UNL1       -0.3794
     13 H          17.5399   67.6653   -4.2141 H       1  UNL1        0.2106
     14 H          16.1094   68.3706   -2.7908 H       1  UNL1        0.2105
     15 N          17.3743   70.4160   -7.0779 N.ar    1  UNL1       -0.2551
     16 C          16.7376   70.5617   -8.2534 C.ar    1  UNL1        0.3323
     17 N          17.4249   70.6234   -9.4091 N.ar    1  UNL1       -0.2743
     18 C          18.7686   70.5296   -9.4070 C.ar    1  UNL1        0.2626
     19 C          19.4523   70.3701   -8.1768 C.ar    1  UNL1        0.0795
     20 C          18.7388   70.3155   -7.0320 C.ar    1  UNL1        0.0869
     21 O          15.5259   70.6481   -8.2711 O.2     1  UNL1       -0.2464
     22 O          19.3913   70.5806  -10.4530 O.2     1  UNL1       -0.2670
     23 H          16.9494   70.7331  -10.2479 H       1  UNL1        0.1734
     24 O          19.4447   72.4862   -3.0228 O.3     1  UNL1       -0.2703
     25 P          20.9024   72.1195   -3.5979 P.3     1  UNL1        0.2208
     26 O          20.8577   70.7882   -4.2420 O.2     1  UNL1       -0.5170
     27 O          21.3449   73.2251   -4.6822 O.3     1  UNL1       -0.4371
     28 O          21.9667   72.0973   -2.3909 O.3     1  UNL1       -0.2858
     29 C          21.4106   72.8791   -1.3329 C.3     1  UNL1        0.2704
     30 C          22.2510   74.1419   -1.1371 C.3     1  UNL1        0.1967
     31 C          23.6916   73.7364   -0.8104 C.3     1  UNL1        0.1715
     32 C          23.6714   72.7748    0.3831 C.3     1  UNL1        0.1694
     33 C          22.7240   71.6137    0.0708 C.3     1  UNL1        0.1761
     34 O          22.2312   74.9205   -2.3348 O.3     1  UNL1       -0.3775
     35 O          24.4545   74.8990   -0.4805 O.3     1  UNL1       -0.3794
     36 O          23.2186   73.4674    1.5472 O.3     1  UNL1       -0.3794
     37 O          21.4023   72.1119   -0.1312 O.3     1  UNL1       -0.3258
     38 H          21.3067   75.1466   -2.5053 H       1  UNL1        0.2106
     39 H          24.4298   75.4783   -1.2525 H       1  UNL1        0.2105
     40 H          23.8398   74.1909    1.7017 H       1  UNL1        0.2105
     41 C          22.7228   70.6295    1.2426 C.3     1  UNL1        0.1693
     42 O          24.0211   70.5971    1.8378 O.3     1  UNL1       -0.3794
     43 H          23.9775   69.9673    2.5704 H       1  UNL1        0.2105
@<TRIPOS>BOND
     1    15    16   ar
     2    15    20   ar
     3    15     6    1
     4    16    17   ar
     5    16    21    2
     6    17    18   ar
     7    17    23    1
     8    18    19   ar
     9    18    22    2
    10    19    20   ar
    11     6     7    1
    12     6    11    1
    13     7     8    1
    14     7     9    1
    15     8    13    1
    16     9    10    1
    17     9    12    1
    18    10    11    1
    19    10     5    1
    20    12    14    1
    21     5     4    1
    22     4     1    1
    23     1     2    2
    24     1     3    1
    25     1    24    1
    26    24    25    1
    27    25    26    2
    28    25    27    1
    29    25    28    1
    30    28    29    1
    31    29    30    1
    32    29    37    1
    33    30    31    1
    34    30    34    1
    35    31    32    1
    36    31    35    1
    37    32    33    1
    38    32    36    1
    39    33    41    1
    40    33    37    1
    41    41    42    1
    42    34    38    1
    43    35    39    1
    44    36    40    1
    45    42    43    1
@<TRIPOS>MOLECULE
GDU
 43 45 0 0 0
SMALL
GASTEIGER

@<TRIPOS>ATOM
      1 P          22.1946   71.2908   -0.0245 P.3     1  UNL1        0.2189
      2 O          23.5711   70.9151   -0.4162 O.2     1  UNL1       -0.5170
      3 O          21.5452   70.1083    0.8546 O.3     1  UNL1       -0.4371
      4 O          22.2337   72.6448    0.8426 O.3     1  UNL1       -0.3112
      5 C          23.2102   72.4520    1.8671 C.3     1  UNL1        0.1811
      6 C          22.5867   73.4101    5.2760 C.3     1  UNL1        0.2383
      7 C          21.5467   74.2101    4.4505 C.3     1  UNL1        0.1895
      8 O          20.3541   74.4291    5.2076 O.3     1  UNL1       -0.3779
      9 C          21.2769   73.2573    3.2569 C.3     1  UNL1        0.1713
     10 C          22.5130   72.3394    3.2241 C.3     1  UNL1        0.1764
     11 O          23.4014   72.7757    4.2674 O.3     1  UNL1       -0.3308
     12 O          20.0875   72.4981    3.4826 O.3     1  UNL1       -0.3794
     13 H          19.7515   74.9296    4.6400 H       1  UNL1        0.2106
     14 H          19.3602   73.1312    3.5525 H       1  UNL1        0.2105
     15 N          23.3949   74.3091    6.1016 N.ar    1  UNL1       -0.2551
     16 C          22.9637   74.6574    7.3267 C.ar    1  UNL1        0.3323
     17 N          23.6894   75.4796    8.1073 N.ar    1  UNL1       -0.2743
     18 C          24.8610   75.9770    7.6668 C.ar    1  UNL1        0.2626
     19 C          25.3249   75.6233    6.3760 C.ar    1  UNL1        0.0795
     20 C          24.5794   74.7936    5.6156 C.ar    1  UNL1        0.0869
     21 O          21.9090   74.2163    7.7380 O.2     1  UNL1       -0.2464
     22 O          25.5163   76.7251    8.3707 O.2     1  UNL1       -0.2670
     23 H          23.3651   75.7171    8.9906 H       1  UNL1        0.1734
     24 O          21.3063   71.5244   -1.3470 O.3     1  UNL1       -0.2703
     25 P          22.2625   72.2286   -2.4331 P.3     1  UNL1        0.2208
     26 O          22.9938   73.3457   -1.7956 O.2     1  UNL1       -0.5170
     27 O          23.3173   71.1505   -2.9982 O.3     1  UNL1       -0.4371
     28 O          21.3713   72.7934   -3.6483 O.3     1  UNL1       -0.2858
     29 C          21.3146   71.7628   -4.6354 C.3     1  UNL1        0.2704
     30 C          21.8841   72.2887   -5.9539 C.3     1  UNL1        0.1967
     31 C          21.0698   73.5079   -6.3976 C.3     1  UNL1        0.1715
     32 C          19.5875   73.1195   -6.4361 C.3     1  UNL1        0.1694
     33 C          19.1915   72.5320   -5.0792 C.3     1  UNL1        0.1761
     34 O          23.2499   72.6649   -5.7691 O.3     1  UNL1       -0.3775
     35 O          21.4942   73.9212   -7.6982 O.3     1  UNL1       -0.3794
     36 O          19.3740   72.1497   -7.4627 O.3     1  UNL1       -0.3794
     37 O          19.9601   71.3581   -4.8202 O.3     1  UNL1       -0.3258
     38 H          23.7220   71.8707   -5.4840 H       1  UNL1        0.2106
     39 H          22.4313   74.1434   -7.6293 H       1  UNL1        0.2105
     40 H          19.6415   72.5602   -8.2954 H       1  UNL1        0.2105
     41 C          17.7041   72.1724   -5.0956 C.3     1  UNL1        0.1693
     42 O          17.5475   70.7832   -4.8010 O.3     1  UNL1       -0.3794
     43 H          16.5984   70.5983   -4.8204 H       1  UNL1        0.2105
@<TRIPOS>BOND
     1    15    16   ar
     2    15    20   ar
     3    15     6    1
     4    16    17   ar
     5    16    21    2
     6    17    18   ar
     7    17    23    1
     8    18    19   ar
     9    18    22    2
    10    19    20   ar
    11     6     7    1
    12     6    11    1
    13     7     8    1
    14     7     9    1
    15     8    13    1
    16     9    10    1
    17     9    12    1
    18    10    11    1
    19    10     5    1
    20    12    14    1
    21     5     4    1
    22     4     1    1
    23     1     2    2
    24     1     3    1
    25     1    24    1
    26    24    25    1
    27    25    26    2
    28    25    27    1
    29    25    28    1
    30    28    29    1
    31    29    30    1
    32    29    37    1
    33    30    31    1
    34    30    34    1
    35    31    32    1
    36    31    35    1
    37    32    33    1
    38    32    36    1
    39    33    41    1
    40    33    37    1
    41    41    42    1
    42    34    38    1
    43    35    39    1
    44    36    40    1
    45    42    43    1
@<TRIPOS>MOLECULE
GDU
 43 45 0 0 0
SMALL
GASTEIGER

@<TRIPOS>ATOM
      1 P          22.7122   72.3213   -3.7802 P.3     1  UNL1        0.2189
      2 O          22.1515   73.6098   -3.3166 O.2     1  UNL1       -0.5170
      3 O          24.1767   72.5665   -4.4031 O.3     1  UNL1       -0.4371
      4 O          22.8205   71.3049   -2.5384 O.3     1  UNL1       -0.3112
      5 C          23.1005   72.0940   -1.3811 C.3     1  UNL1        0.1811
      6 C          24.6646   71.2404    1.7418 C.3     1  UNL1        0.2383
      7 C          23.2973   71.8493    2.1451 C.3     1  UNL1        0.1895
      8 O          22.8166   71.2649    3.3578 O.3     1  UNL1       -0.3779
      9 C          22.3982   71.4520    0.9454 C.3     1  UNL1        0.1713
     10 C          23.3960   71.1749   -0.1944 C.3     1  UNL1        0.1764
     11 O          24.7148   71.4416    0.3134 O.3     1  UNL1       -0.3308
     12 O          21.6427   70.2791    1.2541 O.3     1  UNL1       -0.3794
     13 H          21.9673   71.6852    3.5524 H       1  UNL1        0.2106
     14 H          21.0820   70.4981    2.0107 H       1  UNL1        0.2105
     15 N          25.7622   71.9496    2.4015 N.ar    1  UNL1       -0.2551
     16 C          25.6029   73.2345    2.7649 C.ar    1  UNL1        0.3323
     17 N          26.5951   73.9083    3.3761 N.ar    1  UNL1       -0.2743
     18 C          27.7733   73.3054    3.6258 C.ar    1  UNL1        0.2626
     19 C          27.9574   71.9540    3.2434 C.ar    1  UNL1        0.0795
     20 C          26.9444   71.3004    2.6358 C.ar    1  UNL1        0.0869
     21 O          24.5455   73.7916    2.5467 O.2     1  UNL1       -0.2464
     22 O          28.6736   73.9159    4.1746 O.2     1  UNL1       -0.2670
     23 H          26.4612   74.8339    3.6353 H       1  UNL1        0.1734
     24 O          21.7495   71.6928   -4.9074 O.3     1  UNL1       -0.2703
     25 P          20.6009   70.8717   -4.1352 P.3     1  UNL1        0.2208
     26 O          21.2131   69.7493   -3.3905 O.2     1  UNL1       -0.5170
     27 O          19.8436   71.8498   -3.1036 O.3     1  UNL1       -0.4371
     28 O          19.5423   70.2954   -5.2017 O.3     1  UNL1       -0.2858
     29 C          18.4041   71.1572   -5.1638 C.3     1  UNL1        0.2704
     30 C          17.1888   70.3739   -4.6649 C.3     1  UNL1        0.1967
     31 C          16.9394   69.1894   -5.6036 C.3     1  UNL1        0.1715
     32 C          16.8316   69.7160   -7.0391 C.3     1  UNL1        0.1694
     33 C          18.0759   70.5482   -7.3588 C.3     1  UNL1        0.1761
     34 O          17.4385   69.8941   -3.3425 O.3     1  UNL1       -0.3775
     35 O          15.7232   68.5343   -5.2373 O.3     1  UNL1       -0.3794
     36 O          15.6630   70.5277   -7.1638 O.3     1  UNL1       -0.3794
     37 O          18.1498   71.6636   -6.4720 O.3     1  UNL1       -0.3258
     38 H          17.5968   70.6711   -2.7891 H       1  UNL1        0.2106
     39 H          15.8317   68.2313   -4.3270 H       1  UNL1        0.2105
     40 H          14.9075   69.9655   -6.9483 H       1  UNL1        0.2105
     41 C          17.9944   71.0506   -8.8020 C.3     1  UNL1        0.1693
     42 O          17.1892   72.2298   -8.8502 O.3     1  UNL1       -0.3794
     43 H          17.1640   72.5138   -9.7743 H       1  UNL1        0.2105
@<TRIPOS>BOND
     1    15    16   ar
     2    15    20   ar
     3    15     6    1
     4    16    17   ar
     5    16    21    2
     6    17    18   ar
     7    17    23    1
     8    18    19   ar
     9    18    22    2
    10    19    20   ar
    11     6     7    1
    12     6    11    1
    13     7     8    1
    14     7     9    1
    15     8    13    1
    16     9    10    1
    17     9    12    1
    18    10    11    1
    19    10     5    1
    20    12    14    1
    21     5     4    1
    22     4     1    1
    23     1     2    2
    24     1     3    1
    25     1    24    1
    26    24    25    1
    27    25    26    2
    28    25    27    1
    29    25    28    1
    30    28    29    1
    31    29    30    1
    32    29    37    1
    33    30    31    1
    34    30    34    1
    35    31    32    1
    36    31    35    1
    37    32    33    1
    38    32    36    1
    39    33    41    1
    40    33    37    1
    41    41    42    1
    42    34    38    1
    43    35    39    1
    44    36    40    1
    45    42    43    1
@<TRIPOS>MOLECULE
GDU
 43 45 0 0 0
SMALL
GASTEIGER

@<TRIPOS>ATOM
      1 P          21.7291   72.4064   -6.3176 P.3     1  UNL1        0.2189
      2 O          21.6986   73.5577   -7.2467 O.2     1  UNL1       -0.5170
      3 O          20.6124   72.6091   -5.1752 O.3     1  UNL1       -0.4371
      4 O          21.4256   71.0521   -7.1303 O.3     1  UNL1       -0.3112
      5 C          20.5247   71.3952   -8.1845 C.3     1  UNL1        0.1811
      6 C          17.4045   70.1357   -6.9176 C.3     1  UNL1        0.2383
      7 C          16.9976   71.1329   -8.0325 C.3     1  UNL1        0.1895
      8 O          15.7746   70.7317   -8.6541 O.3     1  UNL1       -0.3779
      9 C          18.1856   71.0157   -9.0225 C.3     1  UNL1        0.1713
     10 C          19.3299   70.4401   -8.1676 C.3     1  UNL1        0.1764
     11 O          18.8355   70.2999   -6.8244 O.3     1  UNL1       -0.3308
     12 O          17.8576   70.1288  -10.0938 O.3     1  UNL1       -0.3794
     13 H          15.5782   71.3908   -9.3344 H       1  UNL1        0.2106
     14 H          17.0993   70.5137  -10.5538 H       1  UNL1        0.2105
     15 N          16.7615   70.4855   -5.6499 N.ar    1  UNL1       -0.2551
     16 C          16.4304   69.5149   -4.7800 C.ar    1  UNL1        0.3323
     17 N          15.8416   69.8099   -3.6060 N.ar    1  UNL1       -0.2743
     18 C          15.5643   71.0888   -3.2868 C.ar    1  UNL1        0.2626
     19 C          15.9021   72.1210   -4.1960 C.ar    1  UNL1        0.0795
     20 C          16.4958   71.7977   -5.3645 C.ar    1  UNL1        0.0869
     21 O          16.6748   68.3568   -5.0539 O.2     1  UNL1       -0.2464
     22 O          15.0270   71.3563   -2.2265 O.2     1  UNL1       -0.2670
     23 H          15.6135   69.0972   -2.9882 H       1  UNL1        0.1734
     24 O          23.1833   72.3088   -5.6333 O.3     1  UNL1       -0.2703
     25 P          23.1276   73.1944   -4.2907 P.3     1  UNL1        0.2208
     26 O          24.4972   73.3710   -3.7594 O.2     1  UNL1       -0.5170
     27 O          22.4923   74.6361   -4.6251 O.3     1  UNL1       -0.4371
     28 O          22.2168   72.4496   -3.1926 O.3     1  UNL1       -0.2858
     29 C          22.4357   73.1180   -1.9495 C.3     1  UNL1        0.2704
     30 C          22.5184   72.0857   -0.8240 C.3     1  UNL1        0.1967
     31 C          21.2131   71.2850   -0.7850 C.3     1  UNL1        0.1715
     32 C          20.0393   72.2658   -0.6857 C.3     1  UNL1        0.1694
     33 C          20.1437   73.2840   -1.8238 C.3     1  UNL1        0.1761
     34 O          23.6161   71.2032   -1.0636 O.3     1  UNL1       -0.3775
     35 O          21.2153   70.4183    0.3514 O.3     1  UNL1       -0.3794
     36 O          20.0862   72.9412    0.5720 O.3     1  UNL1       -0.3794
     37 O          21.3599   74.0200   -1.7011 O.3     1  UNL1       -0.3258
     38 H          24.4134   71.7497   -1.0873 H       1  UNL1        0.2106
     39 H          21.9741   69.8294    0.2528 H       1  UNL1        0.2105
     40 H          20.0233   72.2626    1.2566 H       1  UNL1        0.2105
     41 C          18.9570   74.2477   -1.7541 C.3     1  UNL1        0.1693
     42 O          19.2970   75.3617   -0.9268 O.3     1  UNL1       -0.3794
     43 H          18.5249   75.9437   -0.9098 H       1  UNL1        0.2105
@<TRIPOS>BOND
     1    15    16   ar
     2    15    20   ar
     3    15     6    1
     4    16    17   ar
     5    16    21    2
     6    17    18   ar
     7    17    23    1
     8    18    19   ar
     9    18    22    2
    10    19    20   ar
    11     6     7    1
    12     6    11    1
    13     7     8    1
    14     7     9    1
    15     8    13    1
    16     9    10    1
    17     9    12    1
    18    10    11    1
    19    10     5    1
    20    12    14    1
    21     5     4    1
    22     4     1    1
    23     1     2    2
    24     1     3    1
    25     1    24    1
    26    24    25    1
    27    25    26    2
    28    25    27    1
    29    25    28    1
    30    28    29    1
    31    29    30    1
    32    29    37    1
    33    30    31    1
    34    30    34    1
    35    31    32    1
    36    31    35    1
    37    32    33    1
    38    32    36    1
    39    33    41    1
    40    33    37    1
    41    41    42    1
    42    34    38    1
    43    35    39    1
    44    36    40    1
    45    42    43    1
