@<TRIPOS>MOLECULE
UD1
 46 48 0 0 0
SMALL
GASTEIGER

@<TRIPOS>ATOM
      1 P          20.7822   71.6365   -2.2350 P.3     1  UNL1        0.2189
      2 O          21.3811   72.9712   -2.0151 O.2     1  UNL1       -0.5170
      3 O          21.8566   70.6783   -2.9562 O.3     1  UNL1       -0.4371
      4 O          19.4800   71.7808   -3.1711 O.3     1  UNL1       -0.3112
      5 C          18.3958   71.1709   -2.4689 C.3     1  UNL1        0.1811
      6 C          16.8770   70.5800   -5.6738 C.3     1  UNL1        0.2383
      7 C          16.9896   69.1742   -5.0325 C.3     1  UNL1        0.1895
      8 O          15.9312   68.3240   -5.4755 O.3     1  UNL1       -0.3779
      9 C          16.8474   69.4933   -3.5215 C.3     1  UNL1        0.1713
     10 C          17.2110   70.9872   -3.4185 C.3     1  UNL1        0.1764
     11 O          17.5676   71.4345   -4.7376 O.3     1  UNL1       -0.3308
     12 O          15.5047   69.2675   -3.0866 O.3     1  UNL1       -0.3794
     13 H          16.0589   67.4688   -5.0423 H       1  UNL1        0.2106
     14 H          15.3182   68.3303   -3.2314 H       1  UNL1        0.2105
     15 N          17.5345   70.6087   -6.9808 N.ar    1  UNL1       -0.2551
     16 C          16.8010   70.4696   -8.0989 C.ar    1  UNL1        0.3323
     17 N          17.3786   70.4960   -9.3146 N.ar    1  UNL1       -0.2743
     18 C          18.7126   70.6545   -9.4297 C.ar    1  UNL1        0.2626
     19 C          19.4975   70.7962   -8.2607 C.ar    1  UNL1        0.0795
     20 C          18.8917   70.7713   -7.0541 C.ar    1  UNL1        0.0869
     21 O          15.5967   70.3259   -8.0113 O.2     1  UNL1       -0.2464
     22 O          19.2364   70.6737  -10.5282 O.2     1  UNL1       -0.2670
     23 H          16.8335   70.3989  -10.1106 H       1  UNL1        0.1734
     24 O          20.3577   70.9989   -0.8200 O.3     1  UNL1       -0.2703
     25 P          21.6746   71.0011    0.1046 P.3     1  UNL1        0.2208
     26 O          22.8748   70.8452   -0.7462 O.2     1  UNL1       -0.5170
     27 O          21.5979   69.7806    1.1519 O.3     1  UNL1       -0.4371
     28 O          21.7645   72.3920    0.9095 O.3     1  UNL1       -0.2865
     29 C          21.7039   72.0708    2.3003 C.3     1  UNL1        0.2611
     30 C          21.4924   73.3537    3.1062 C.3     1  UNL1        0.1582
     31 C          22.6488   74.3194    2.8237 C.3     1  UNL1        0.1625
     32 C          23.9710   73.5923    3.0906 C.3     1  UNL1        0.1686
     33 C          23.9967   72.2927    2.2833 C.3     1  UNL1        0.1760
     34 O          22.5427   75.4573    3.6813 O.3     1  UNL1       -0.3801
     35 O          25.0626   74.4246    2.6941 O.3     1  UNL1       -0.3794
     36 O          22.9237   71.4473    2.6962 O.3     1  UNL1       -0.3263
     37 H          23.2876   76.0368    3.4700 H       1  UNL1        0.2105
     38 H          25.8733   73.9292    2.8781 H       1  UNL1        0.2105
     39 C          19.3167   74.3045    3.6507 C.2     1  UNL1        0.2231
     40 C          18.0134   74.9446    3.2456 C.3     1  UNL1        0.0946
     41 N          20.2264   73.9759    2.7133 N.am    1  UNL1       -0.2994
     42 O          19.5463   74.0845    4.8207 O.2     1  UNL1       -0.2751
     43 H          20.0429   74.1517    1.7768 H       1  UNL1        0.1496
     44 C          25.3273   71.5745    2.5176 C.3     1  UNL1        0.1693
     45 O          25.0979   70.1679    2.6220 O.3     1  UNL1       -0.3794
     46 H          25.9592   69.7541    2.7692 H       1  UNL1        0.2105
@<TRIPOS>BOND
     1    29    30    1
     2    29    28    1
     3    29    36    1
     4    30    31    1
     5    30    41    1
     6    31    32    1
     7    31    34    1
     8    32    33    1
     9    32    35    1
    10    33    44    1
    11    33    36    1
    12    44    45    1
    13    39    40    1
    14    39    41   am
    15    39    42    2
    16    41    43    1
    17    28    25    1
    18    34    37    1
    19    35    38    1
    20    45    46    1
    21    15    16   ar
    22    15    20   ar
    23    15     6    1
    24    16    17   ar
    25    16    21    2
    26    17    18   ar
    27    17    23    1
    28    18    19   ar
    29    18    22    2
    30    19    20   ar
    31     6     7    1
    32     6    11    1
    33     7     8    1
    34     7     9    1
    35     8    13    1
    36     9    10    1
    37     9    12    1
    38    10    11    1
    39    10     5    1
    40    12    14    1
    41     5     4    1
    42     4     1    1
    43     1     2    2
    44     1     3    1
    45     1    24    1
    46    24    25    1
    47    25    26    2
    48    25    27    1
@<TRIPOS>MOLECULE
UD1
 46 48 0 0 0
SMALL
GASTEIGER

@<TRIPOS>ATOM
      1 P          20.4444   71.0008   -2.0867 P.3     1  UNL1        0.2189
      2 O          20.4535   70.6036   -0.6616 O.2     1  UNL1       -0.5170
      3 O          20.4246   72.6071   -2.1960 O.3     1  UNL1       -0.4371
      4 O          19.1337   70.3990   -2.8026 O.3     1  UNL1       -0.3112
      5 C          18.0744   71.3304   -2.5772 C.3     1  UNL1        0.1811
      6 C          16.7387   70.5590   -5.8249 C.3     1  UNL1        0.2383
      7 C          16.8563   69.1857   -5.1174 C.3     1  UNL1        0.1895
      8 O          15.8455   68.2867   -5.5750 O.3     1  UNL1       -0.3779
      9 C          16.6282   69.5647   -3.6310 C.3     1  UNL1        0.1713
     10 C          16.9453   71.0716   -3.5759 C.3     1  UNL1        0.1764
     11 O          17.3569   71.4725   -4.8939 O.3     1  UNL1       -0.3308
     12 O          15.2716   69.3182   -3.2543 O.3     1  UNL1       -0.3794
     13 H          15.9740   67.4548   -5.0986 H       1  UNL1        0.2106
     14 H          15.1183   68.3706   -3.3669 H       1  UNL1        0.2105
     15 N          17.4613   70.5512   -7.0974 N.ar    1  UNL1       -0.2551
     16 C          16.7750   70.5547   -8.2534 C.ar    1  UNL1        0.3323
     17 N          17.4135   70.5517   -9.4386 N.ar    1  UNL1       -0.2743
     18 C          18.7610   70.5359   -9.4844 C.ar    1  UNL1        0.2626
     19 C          19.4958   70.5261   -8.2749 C.ar    1  UNL1        0.0795
     20 C          18.8301   70.5347   -7.1002 C.ar    1  UNL1        0.0869
     21 O          15.5594   70.5690   -8.2285 O.2     1  UNL1       -0.2464
     22 O          19.3392   70.5284  -10.5554 O.2     1  UNL1       -0.2670
     23 H          16.9026   70.5591  -10.2626 H       1  UNL1        0.1734
     24 O          21.7621   70.4289   -2.8117 O.3     1  UNL1       -0.2703
     25 P          22.9558   71.4573   -2.4852 P.3     1  UNL1        0.2208
     26 O          24.2194   70.9444   -3.0590 O.2     1  UNL1       -0.5170
     27 O          23.1139   71.6082   -0.8901 O.3     1  UNL1       -0.4371
     28 O          22.6189   72.8940   -3.1279 O.3     1  UNL1       -0.2865
     29 C          23.7559   73.2782   -3.9029 C.3     1  UNL1        0.2611
     30 C          23.8192   74.8044   -3.9844 C.3     1  UNL1        0.1582
     31 C          22.5274   75.3263   -4.6234 C.3     1  UNL1        0.1625
     32 C          22.3185   74.6100   -5.9618 C.3     1  UNL1        0.1686
     33 C          22.3653   73.0982   -5.7306 C.3     1  UNL1        0.1760
     34 O          22.6359   76.7341   -4.8417 O.3     1  UNL1       -0.3801
     35 O          21.0475   74.9727   -6.5047 O.3     1  UNL1       -0.3794
     36 O          23.6433   72.7288   -5.2140 O.3     1  UNL1       -0.3263
     37 H          21.8038   77.0195   -5.2435 H       1  UNL1        0.2105
     38 H          20.9568   74.5001   -7.3443 H       1  UNL1        0.2105
     39 C          25.0924   76.0014   -2.2872 C.2     1  UNL1        0.2231
     40 C          25.2372   76.5742   -0.9004 C.3     1  UNL1        0.0946
     41 N          23.9601   75.3615   -2.6375 N.am    1  UNL1       -0.2994
     42 O          25.9958   76.1159   -3.0878 O.2     1  UNL1       -0.2751
     43 H          23.2371   75.2695   -1.9969 H       1  UNL1        0.1496
     44 C          22.1253   72.3731   -7.0564 C.3     1  UNL1        0.1693
     45 O          22.6705   73.1456   -8.1278 O.3     1  UNL1       -0.3794
     46 H          22.4981   72.6548   -8.9427 H       1  UNL1        0.2105
@<TRIPOS>BOND
     1    29    30    1
     2    29    28    1
     3    29    36    1
     4    30    31    1
     5    30    41    1
     6    31    32    1
     7    31    34    1
     8    32    33    1
     9    32    35    1
    10    33    44    1
    11    33    36    1
    12    44    45    1
    13    39    40    1
    14    39    41   am
    15    39    42    2
    16    41    43    1
    17    28    25    1
    18    34    37    1
    19    35    38    1
    20    45    46    1
    21    15    16   ar
    22    15    20   ar
    23    15     6    1
    24    16    17   ar
    25    16    21    2
    26    17    18   ar
    27    17    23    1
    28    18    19   ar
    29    18    22    2
    30    19    20   ar
    31     6     7    1
    32     6    11    1
    33     7     8    1
    34     7     9    1
    35     8    13    1
    36     9    10    1
    37     9    12    1
    38    10    11    1
    39    10     5    1
    40    12    14    1
    41     5     4    1
    42     4     1    1
    43     1     2    2
    44     1     3    1
    45     1    24    1
    46    24    25    1
    47    25    26    2
    48    25    27    1
@<TRIPOS>MOLECULE
UD1
 46 48 0 0 0
SMALL
GASTEIGER

@<TRIPOS>ATOM
      1 P          20.5159   71.1224   -1.7366 P.3     1  UNL1        0.2189
      2 O          20.4415   72.5996   -1.7661 O.2     1  UNL1       -0.5170
      3 O          21.8905   70.6404   -2.4227 O.3     1  UNL1       -0.4371
      4 O          19.2681   70.5064   -2.5468 O.3     1  UNL1       -0.3112
      5 C          18.2028   71.4528   -2.4483 C.3     1  UNL1        0.1811
      6 C          16.8806   70.5109   -5.6563 C.3     1  UNL1        0.2383
      7 C          17.1592   69.1652   -4.9410 C.3     1  UNL1        0.1895
      8 O          16.2387   68.1599   -5.3667 O.3     1  UNL1       -0.3779
      9 C          16.9271   69.5335   -3.4525 C.3     1  UNL1        0.1713
     10 C          17.0844   71.0660   -3.4171 C.3     1  UNL1        0.1764
     11 O          17.4204   71.4942   -4.7479 O.3     1  UNL1       -0.3308
     12 O          15.6133   69.1493   -3.0411 O.3     1  UNL1       -0.3794
     13 H          16.4655   67.3512   -4.8870 H       1  UNL1        0.2106
     14 H          15.5584   68.1897   -3.1424 H       1  UNL1        0.2105
     15 N          17.5702   70.5661   -6.9459 N.ar    1  UNL1       -0.2551
     16 C          16.8595   70.4963   -8.0850 C.ar    1  UNL1        0.3323
     17 N          17.4670   70.5486   -9.2852 N.ar    1  UNL1       -0.2743
     18 C          18.8081   70.6634   -9.3636 C.ar    1  UNL1        0.2626
     19 C          19.5689   70.7319   -8.1722 C.ar    1  UNL1        0.0795
     20 C          18.9336   70.6826   -6.9818 C.ar    1  UNL1        0.0869
     21 O          15.6492   70.3927   -8.0306 O.2     1  UNL1       -0.2464
     22 O          19.3587   70.7060  -10.4482 O.2     1  UNL1       -0.2670
     23 H          16.9383   70.5016  -10.0967 H       1  UNL1        0.1734
     24 O          20.4690   70.6130   -0.2111 O.3     1  UNL1       -0.2703
     25 P          21.7365   71.2648    0.5358 P.3     1  UNL1        0.2208
     26 O          22.3953   72.2350   -0.3663 O.2     1  UNL1       -0.5170
     27 O          22.7817   70.1058    0.9315 O.3     1  UNL1       -0.4371
     28 O          21.2451   72.0203    1.8693 O.3     1  UNL1       -0.2865
     29 C          21.9314   73.2726    1.9131 C.3     1  UNL1        0.2611
     30 C          22.8473   73.3041    3.1379 C.3     1  UNL1        0.1582
     31 C          22.0019   73.1059    4.4011 C.3     1  UNL1        0.1625
     32 C          20.8739   74.1431    4.4036 C.3     1  UNL1        0.1686
     33 C          20.1049   74.0462    3.0843 C.3     1  UNL1        0.1760
     34 O          22.8214   73.2821    5.5582 O.3     1  UNL1       -0.3801
     35 O          19.9886   73.8836    5.4947 O.3     1  UNL1       -0.3794
     36 O          20.9801   74.3318    1.9940 O.3     1  UNL1       -0.3263
     37 H          22.2509   73.1486    6.3276 H       1  UNL1        0.2105
     38 H          19.2949   74.5573    5.4584 H       1  UNL1        0.2105
     39 C          25.0347   72.4677    2.4670 C.2     1  UNL1        0.2231
     40 C          26.0535   71.3616    2.3627 C.3     1  UNL1        0.0946
     41 N          23.8376   72.2301    3.0368 N.am    1  UNL1       -0.2994
     42 O          25.2923   73.5718    2.0372 O.2     1  UNL1       -0.2751
     43 H          23.6310   71.3465    3.3807 H       1  UNL1        0.1496
     44 C          18.9555   75.0561    3.0901 C.3     1  UNL1        0.1693
     45 O          17.8556   74.5224    3.8301 O.3     1  UNL1       -0.3794
     46 H          17.1548   75.1880    3.8089 H       1  UNL1        0.2105
@<TRIPOS>BOND
     1    29    30    1
     2    29    28    1
     3    29    36    1
     4    30    31    1
     5    30    41    1
     6    31    32    1
     7    31    34    1
     8    32    33    1
     9    32    35    1
    10    33    44    1
    11    33    36    1
    12    44    45    1
    13    39    40    1
    14    39    41   am
    15    39    42    2
    16    41    43    1
    17    28    25    1
    18    34    37    1
    19    35    38    1
    20    45    46    1
    21    15    16   ar
    22    15    20   ar
    23    15     6    1
    24    16    17   ar
    25    16    21    2
    26    17    18   ar
    27    17    23    1
    28    18    19   ar
    29    18    22    2
    30    19    20   ar
    31     6     7    1
    32     6    11    1
    33     7     8    1
    34     7     9    1
    35     8    13    1
    36     9    10    1
    37     9    12    1
    38    10    11    1
    39    10     5    1
    40    12    14    1
    41     5     4    1
    42     4     1    1
    43     1     2    2
    44     1     3    1
    45     1    24    1
    46    24    25    1
    47    25    26    2
    48    25    27    1
@<TRIPOS>MOLECULE
UD1
 46 48 0 0 0
SMALL
GASTEIGER

@<TRIPOS>ATOM
      1 P          21.0809   71.7277   -2.2168 P.3     1  UNL1        0.2189
      2 O          21.5159   73.1084   -1.9117 O.2     1  UNL1       -0.5170
      3 O          22.2796   70.9355   -2.9435 O.3     1  UNL1       -0.4371
      4 O          19.7999   71.7722   -3.1915 O.3     1  UNL1       -0.3112
      5 C          18.8063   70.9280   -2.6080 C.3     1  UNL1        0.1811
      6 C          17.0959   70.5711   -5.7504 C.3     1  UNL1        0.2383
      7 C          17.0721   69.1508   -5.1320 C.3     1  UNL1        0.1895
      8 O          15.9049   68.4357   -5.5387 O.3     1  UNL1       -0.3779
      9 C          17.0315   69.4579   -3.6124 C.3     1  UNL1        0.1713
     10 C          17.5693   70.8981   -3.5070 C.3     1  UNL1        0.1764
     11 O          17.9194   71.3242   -4.8348 O.3     1  UNL1       -0.3308
     12 O          15.6913   69.3803   -3.1219 O.3     1  UNL1       -0.3794
     13 H          15.9510   67.5640   -5.1221 H       1  UNL1        0.2106
     14 H          15.3917   68.4734   -3.2701 H       1  UNL1        0.2105
     15 N          17.6967   70.5468   -7.0845 N.ar    1  UNL1       -0.2551
     16 C          16.9080   70.4472   -8.1687 C.ar    1  UNL1        0.3323
     17 N          17.4330   70.4265   -9.4081 N.ar    1  UNL1       -0.2743
     18 C          18.7682   70.4966   -9.5818 C.ar    1  UNL1        0.2626
     19 C          19.6105   70.5958   -8.4488 C.ar    1  UNL1        0.0795
     20 C          19.0571   70.6198   -7.2173 C.ar    1  UNL1        0.0869
     21 O          15.7019   70.3831   -8.0283 O.2     1  UNL1       -0.2464
     22 O          19.2442   70.4732  -10.7017 O.2     1  UNL1       -0.2670
     23 H          16.8489   70.3590  -10.1791 H       1  UNL1        0.1734
     24 O          20.6891   70.9741   -0.8502 O.3     1  UNL1       -0.2703
     25 P          21.9508   71.1180    0.1381 P.3     1  UNL1        0.2208
     26 O          23.2021   71.0748   -0.6501 O.2     1  UNL1       -0.5170
     27 O          21.9435   69.9067    1.1987 O.3     1  UNL1       -0.4371
     28 O          21.8606   72.5190    0.9252 O.3     1  UNL1       -0.2865
     29 C          20.6488   72.4922    1.6815 C.3     1  UNL1        0.2611
     30 C          19.9171   73.8246    1.5103 C.3     1  UNL1        0.1582
     31 C          20.8277   74.9615    1.9875 C.3     1  UNL1        0.1625
     32 C          21.2923   74.6513    3.4145 C.3     1  UNL1        0.1686
     33 C          21.9231   73.2576    3.4413 C.3     1  UNL1        0.1760
     34 O          20.1037   76.1931    1.9732 O.3     1  UNL1       -0.3801
     35 O          22.2571   75.6222    3.8246 O.3     1  UNL1       -0.3794
     36 O          20.9542   72.2823    3.0585 O.3     1  UNL1       -0.3263
     37 H          20.7129   76.8790    2.2793 H       1  UNL1        0.2105
     38 H          22.5225   75.3894    4.7257 H       1  UNL1        0.2105
     39 C          18.3119   74.2745   -0.2659 C.2     1  UNL1        0.2231
     40 C          17.9694   74.4779   -1.7198 C.3     1  UNL1        0.0946
     41 N          19.5840   74.0227    0.0982 N.am    1  UNL1       -0.2994
     42 O          17.4419   74.3369    0.5764 O.2     1  UNL1       -0.2751
     43 H          20.2803   73.9725   -0.5757 H       1  UNL1        0.1496
     44 C          22.4198   72.9511    4.8557 C.3     1  UNL1        0.1693
     45 O          21.5354   73.5418    5.8101 O.3     1  UNL1       -0.3794
     46 H          21.8837   73.3258    6.6856 H       1  UNL1        0.2105
@<TRIPOS>BOND
     1    29    30    1
     2    29    28    1
     3    29    36    1
     4    30    31    1
     5    30    41    1
     6    31    32    1
     7    31    34    1
     8    32    33    1
     9    32    35    1
    10    33    44    1
    11    33    36    1
    12    44    45    1
    13    39    40    1
    14    39    41   am
    15    39    42    2
    16    41    43    1
    17    28    25    1
    18    34    37    1
    19    35    38    1
    20    45    46    1
    21    15    16   ar
    22    15    20   ar
    23    15     6    1
    24    16    17   ar
    25    16    21    2
    26    17    18   ar
    27    17    23    1
    28    18    19   ar
    29    18    22    2
    30    19    20   ar
    31     6     7    1
    32     6    11    1
    33     7     8    1
    34     7     9    1
    35     8    13    1
    36     9    10    1
    37     9    12    1
    38    10    11    1
    39    10     5    1
    40    12    14    1
    41     5     4    1
    42     4     1    1
    43     1     2    2
    44     1     3    1
    45     1    24    1
    46    24    25    1
    47    25    26    2
    48    25    27    1
@<TRIPOS>MOLECULE
UD1
 46 48 0 0 0
SMALL
GASTEIGER

@<TRIPOS>ATOM
      1 P          20.9489   70.8690   -3.4145 P.3     1  UNL1        0.2189
      2 O          21.8832   71.5263   -4.3547 O.2     1  UNL1       -0.5170
      3 O          20.4809   69.4541   -4.0241 O.3     1  UNL1       -0.4371
      4 O          19.6607   71.8095   -3.1935 O.3     1  UNL1       -0.3112
      5 C          18.6545   70.9973   -2.5866 C.3     1  UNL1        0.1811
      6 C          17.0128   70.5642   -5.7558 C.3     1  UNL1        0.2383
      7 C          17.0239   69.1480   -5.1277 C.3     1  UNL1        0.1895
      8 O          15.8878   68.3927   -5.5497 O.3     1  UNL1       -0.3779
      9 C          16.9462   69.4638   -3.6113 C.3     1  UNL1        0.1713
     10 C          17.4353   70.9213   -3.5069 C.3     1  UNL1        0.1764
     11 O          17.7951   71.3497   -4.8314 O.3     1  UNL1       -0.3308
     12 O          15.6007   69.3461   -3.1439 O.3     1  UNL1       -0.3794
     13 H          15.9546   67.5258   -5.1260 H       1  UNL1        0.2106
     14 H          15.3333   68.4290   -3.2907 H       1  UNL1        0.2105
     15 N          17.6377   70.5504   -7.0790 N.ar    1  UNL1       -0.2551
     16 C          16.8686   70.4648   -8.1783 C.ar    1  UNL1        0.3323
     17 N          17.4160   70.4541   -9.4081 N.ar    1  UNL1       -0.2743
     18 C          18.7545   70.5201   -9.5567 C.ar    1  UNL1        0.2626
     19 C          19.5763   70.6045   -8.4076 C.ar    1  UNL1        0.0795
     20 C          19.0007   70.6188   -7.1863 C.ar    1  UNL1        0.0869
     21 O          15.6598   70.4046   -8.0606 O.2     1  UNL1       -0.2464
     22 O          19.2507   70.5057  -10.6680 O.2     1  UNL1       -0.2670
     23 H          16.8458   70.3967  -10.1902 H       1  UNL1        0.1734
     24 O          21.6863   70.6294   -2.0046 O.3     1  UNL1       -0.2703
     25 P          22.8608   71.7247   -1.9023 P.3     1  UNL1        0.2208
     26 O          22.4440   72.9613   -2.5993 O.2     1  UNL1       -0.5170
     27 O          24.1966   71.1461   -2.5901 O.3     1  UNL1       -0.4371
     28 O          23.1554   72.0544   -0.3547 O.3     1  UNL1       -0.2865
     29 C          22.7701   70.9012    0.3954 C.3     1  UNL1        0.2611
     30 C          21.6841   71.2915    1.3996 C.3     1  UNL1        0.1582
     31 C          22.2286   72.3835    2.3274 C.3     1  UNL1        0.1625
     32 C          23.5417   71.8917    2.9454 C.3     1  UNL1        0.1686
     33 C          24.4888   71.4589    1.8242 C.3     1  UNL1        0.1760
     34 O          21.2793   72.6504    3.3614 O.3     1  UNL1       -0.3801
     35 O          24.1409   72.9482    3.6979 O.3     1  UNL1       -0.3794
     36 O          23.9049   70.3851    1.0876 O.3     1  UNL1       -0.3263
     37 H          21.6614   73.3413    3.9199 H       1  UNL1        0.2105
     38 H          24.9632   72.5967    4.0678 H       1  UNL1        0.2105
     39 C          20.3416   73.1231    0.5179 C.2     1  UNL1        0.2231
     40 C          19.1347   73.6430   -0.2205 C.3     1  UNL1        0.0946
     41 N          20.5121   71.7971    0.6819 N.am    1  UNL1       -0.2994
     42 O          21.1592   73.8987    0.9653 O.2     1  UNL1       -0.2751
     43 H          19.8578   71.1762    0.3242 H       1  UNL1        0.1496
     44 C          25.8158   70.9963    2.4294 C.3     1  UNL1        0.1693
     45 O          26.6034   72.1362    2.7790 O.3     1  UNL1       -0.3794
     46 H          27.4286   71.8015    3.1553 H       1  UNL1        0.2105
@<TRIPOS>BOND
     1    29    30    1
     2    29    28    1
     3    29    36    1
     4    30    31    1
     5    30    41    1
     6    31    32    1
     7    31    34    1
     8    32    33    1
     9    32    35    1
    10    33    44    1
    11    33    36    1
    12    44    45    1
    13    39    40    1
    14    39    41   am
    15    39    42    2
    16    41    43    1
    17    28    25    1
    18    34    37    1
    19    35    38    1
    20    45    46    1
    21    15    16   ar
    22    15    20   ar
    23    15     6    1
    24    16    17   ar
    25    16    21    2
    26    17    18   ar
    27    17    23    1
    28    18    19   ar
    29    18    22    2
    30    19    20   ar
    31     6     7    1
    32     6    11    1
    33     7     8    1
    34     7     9    1
    35     8    13    1
    36     9    10    1
    37     9    12    1
    38    10    11    1
    39    10     5    1
    40    12    14    1
    41     5     4    1
    42     4     1    1
    43     1     2    2
    44     1     3    1
    45     1    24    1
    46    24    25    1
    47    25    26    2
    48    25    27    1
@<TRIPOS>MOLECULE
UD1
 46 48 0 0 0
SMALL
GASTEIGER

@<TRIPOS>ATOM
      1 P          20.7496   71.7332   -3.2602 P.3     1  UNL1        0.2189
      2 O          20.1454   72.7951   -2.4260 O.2     1  UNL1       -0.5170
      3 O          20.9343   72.2733   -4.7658 O.3     1  UNL1       -0.4371
      4 O          19.7851   70.4438   -3.2682 O.3     1  UNL1       -0.3112
      5 C          18.6140   70.7984   -2.5312 C.3     1  UNL1        0.1811
      6 C          16.9828   70.4958   -5.7210 C.3     1  UNL1        0.2383
      7 C          16.9670   69.0600   -5.1392 C.3     1  UNL1        0.1895
      8 O          15.8209   68.3379   -5.5912 O.3     1  UNL1       -0.3779
      9 C          16.8863   69.3277   -3.6137 C.3     1  UNL1        0.1713
     10 C          17.3988   70.7727   -3.4596 C.3     1  UNL1        0.1764
     11 O          17.7729   71.2377   -4.7676 O.3     1  UNL1       -0.3308
     12 O          15.5364   69.2174   -3.1572 O.3     1  UNL1       -0.3794
     13 H          15.8710   67.4567   -5.1956 H       1  UNL1        0.2106
     14 H          15.2547   68.3101   -3.3350 H       1  UNL1        0.2105
     15 N          17.6147   70.5145   -7.0408 N.ar    1  UNL1       -0.2551
     16 C          16.8511   70.4607   -8.1459 C.ar    1  UNL1        0.3323
     17 N          17.4050   70.4802   -9.3727 N.ar    1  UNL1       -0.2743
     18 C          18.7445   70.5453   -9.5126 C.ar    1  UNL1        0.2626
     19 C          19.5605   70.5964   -8.3574 C.ar    1  UNL1        0.0795
     20 C          18.9784   70.5807   -7.1391 C.ar    1  UNL1        0.0869
     21 O          15.6415   70.4018   -8.0362 O.2     1  UNL1       -0.2464
     22 O          19.2466   70.5582  -10.6212 O.2     1  UNL1       -0.2670
     23 H          16.8388   70.4455  -10.1591 H       1  UNL1        0.1734
     24 O          22.1840   71.3264   -2.6552 O.3     1  UNL1       -0.2703
     25 P          23.1340   72.6166   -2.8038 P.3     1  UNL1        0.2208
     26 O          22.3175   73.7884   -3.1899 O.2     1  UNL1       -0.5170
     27 O          24.2433   72.3395   -3.9373 O.3     1  UNL1       -0.4371
     28 O          23.8648   72.9109   -1.4003 O.3     1  UNL1       -0.2865
     29 C          23.0598   73.8654   -0.7059 C.3     1  UNL1        0.2611
     30 C          23.9667   74.8177    0.0756 C.3     1  UNL1        0.1582
     31 C          24.8150   74.0062    1.0611 C.3     1  UNL1        0.1625
     32 C          23.8812   73.1449    1.9181 C.3     1  UNL1        0.1686
     33 C          22.9828   72.3164    0.9974 C.3     1  UNL1        0.1760
     34 O          25.5561   74.8947    1.8995 O.3     1  UNL1       -0.3801
     35 O          24.6573   72.2729    2.7420 O.3     1  UNL1       -0.3794
     36 O          22.1862   73.1845    0.1922 O.3     1  UNL1       -0.3263
     37 H          26.0743   74.3434    2.5019 H       1  UNL1        0.2105
     38 H          24.0316   71.7498    3.2628 H       1  UNL1        0.2105
     39 C          24.7687   76.8731   -0.9570 C.2     1  UNL1        0.2231
     40 C          25.6716   77.6082   -1.9145 C.3     1  UNL1        0.0946
     41 N          24.8439   75.5322   -0.8541 N.am    1  UNL1       -0.2994
     42 O          23.9739   77.4889   -0.2793 O.2     1  UNL1       -0.2751
     43 H          25.4797   75.0392   -1.3965 H       1  UNL1        0.1496
     44 C          22.0683   71.4282    1.8435 C.3     1  UNL1        0.1693
     45 O          21.6884   70.2771    1.0868 O.3     1  UNL1       -0.3794
     46 H          21.1142   69.7458    1.6548 H       1  UNL1        0.2105
@<TRIPOS>BOND
     1    29    30    1
     2    29    28    1
     3    29    36    1
     4    30    31    1
     5    30    41    1
     6    31    32    1
     7    31    34    1
     8    32    33    1
     9    32    35    1
    10    33    44    1
    11    33    36    1
    12    44    45    1
    13    39    40    1
    14    39    41   am
    15    39    42    2
    16    41    43    1
    17    28    25    1
    18    34    37    1
    19    35    38    1
    20    45    46    1
    21    15    16   ar
    22    15    20   ar
    23    15     6    1
    24    16    17   ar
    25    16    21    2
    26    17    18   ar
    27    17    23    1
    28    18    19   ar
    29    18    22    2
    30    19    20   ar
    31     6     7    1
    32     6    11    1
    33     7     8    1
    34     7     9    1
    35     8    13    1
    36     9    10    1
    37     9    12    1
    38    10    11    1
    39    10     5    1
    40    12    14    1
    41     5     4    1
    42     4     1    1
    43     1     2    2
    44     1     3    1
    45     1    24    1
    46    24    25    1
    47    25    26    2
    48    25    27    1
@<TRIPOS>MOLECULE
UD1
 46 48 0 0 0
SMALL
GASTEIGER

@<TRIPOS>ATOM
      1 P          20.9780   71.3516   -1.9849 P.3     1  UNL1        0.2189
      2 O          22.2115   70.7055   -2.4847 O.2     1  UNL1       -0.5170
      3 O          20.5132   70.6367   -0.6191 O.3     1  UNL1       -0.4371
      4 O          19.8133   71.2087   -3.0876 O.3     1  UNL1       -0.3112
      5 C          18.6961   70.6049   -2.4337 C.3     1  UNL1        0.1811
      6 C          17.0332   70.4786   -5.6190 C.3     1  UNL1        0.2383
      7 C          16.9625   69.0255   -5.0863 C.3     1  UNL1        0.1895
      8 O          15.7849   68.3665   -5.5535 O.3     1  UNL1       -0.3779
      9 C          16.9027   69.2437   -3.5520 C.3     1  UNL1        0.1713
     10 C          17.4748   70.6605   -3.3528 C.3     1  UNL1        0.1764
     11 O          17.8591   71.1546   -4.6472 O.3     1  UNL1       -0.3308
     12 O          15.5524   69.1728   -3.0888 O.3     1  UNL1       -0.3794
     13 H          15.8015   67.4710   -5.1886 H       1  UNL1        0.2106
     14 H          15.2327   68.2844   -3.2952 H       1  UNL1        0.2105
     15 N          17.6568   70.5169   -6.9423 N.ar    1  UNL1       -0.2551
     16 C          16.8864   70.4773   -8.0433 C.ar    1  UNL1        0.3323
     17 N          17.4325   70.5150   -9.2731 N.ar    1  UNL1       -0.2743
     18 C          18.7710   70.5843   -9.4204 C.ar    1  UNL1        0.2626
     19 C          19.5942   70.6205   -8.2698 C.ar    1  UNL1        0.0795
     20 C          19.0198   70.5868   -7.0482 C.ar    1  UNL1        0.0869
     21 O          15.6776   70.4148   -7.9268 O.2     1  UNL1       -0.2464
     22 O          19.2661   70.6136  -10.5319 O.2     1  UNL1       -0.2670
     23 H          16.8614   70.4904  -10.0564 H       1  UNL1        0.1734
     24 O          21.2639   72.9102   -1.7055 O.3     1  UNL1       -0.2703
     25 P          22.7161   73.0006   -1.0185 P.3     1  UNL1        0.2208
     26 O          23.7318   73.3043   -2.0505 O.2     1  UNL1       -0.5170
     27 O          23.0678   71.5942   -0.3181 O.3     1  UNL1       -0.4371
     28 O          22.7144   74.1658    0.0918 O.3     1  UNL1       -0.2865
     29 C          21.3759   74.6589    0.1730 C.3     1  UNL1        0.2611
     30 C          21.4064   76.1821    0.3106 C.3     1  UNL1        0.1582
     31 C          22.1981   76.5560    1.5687 C.3     1  UNL1        0.1625
     32 C          21.6019   75.8052    2.7641 C.3     1  UNL1        0.1686
     33 C          21.5595   74.3098    2.4426 C.3     1  UNL1        0.1760
     34 O          22.1077   77.9646    1.7904 O.3     1  UNL1       -0.3801
     35 O          22.4138   76.0242    3.9193 O.3     1  UNL1       -0.3794
     36 O          20.7271   74.0845    1.3055 O.3     1  UNL1       -0.3263
     37 H          22.6186   78.1551    2.5891 H       1  UNL1        0.2105
     38 H          22.0039   75.5343    4.6463 H       1  UNL1        0.2105
     39 C          23.3745   77.0176   -0.8567 C.2     1  UNL1        0.2231
     40 C          24.0376   77.6207   -2.0687 C.3     1  UNL1        0.0946
     41 N          22.0511   76.7675   -0.8667 N.am    1  UNL1       -0.2994
     42 O          24.0325   76.7579    0.1281 O.2     1  UNL1       -0.2751
     43 H          21.5243   76.9755   -1.6546 H       1  UNL1        0.1496
     44 C          20.9956   73.5470    3.6431 C.3     1  UNL1        0.1693
     45 O          20.6103   72.2329    3.2348 O.3     1  UNL1       -0.3794
     46 H          20.2611   71.7875    4.0185 H       1  UNL1        0.2105
@<TRIPOS>BOND
     1    29    30    1
     2    29    28    1
     3    29    36    1
     4    30    31    1
     5    30    41    1
     6    31    32    1
     7    31    34    1
     8    32    33    1
     9    32    35    1
    10    33    44    1
    11    33    36    1
    12    44    45    1
    13    39    40    1
    14    39    41   am
    15    39    42    2
    16    41    43    1
    17    28    25    1
    18    34    37    1
    19    35    38    1
    20    45    46    1
    21    15    16   ar
    22    15    20   ar
    23    15     6    1
    24    16    17   ar
    25    16    21    2
    26    17    18   ar
    27    17    23    1
    28    18    19   ar
    29    18    22    2
    30    19    20   ar
    31     6     7    1
    32     6    11    1
    33     7     8    1
    34     7     9    1
    35     8    13    1
    36     9    10    1
    37     9    12    1
    38    10    11    1
    39    10     5    1
    40    12    14    1
    41     5     4    1
    42     4     1    1
    43     1     2    2
    44     1     3    1
    45     1    24    1
    46    24    25    1
    47    25    26    2
    48    25    27    1
@<TRIPOS>MOLECULE
UD1
 46 48 0 0 0
SMALL
GASTEIGER

@<TRIPOS>ATOM
      1 P          21.4330   71.1796    0.0026 P.3     1  UNL1        0.2189
      2 O          20.5774   72.3048    0.4394 O.2     1  UNL1       -0.5170
      3 O          21.5288   70.0885    1.1828 O.3     1  UNL1       -0.4371
      4 O          22.9073   71.7289   -0.3401 O.3     1  UNL1       -0.3112
      5 C          23.7817   71.2262    0.6713 C.3     1  UNL1        0.1811
      6 C          25.6570   73.1572    3.0549 C.3     1  UNL1        0.2383
      7 C          25.6180   74.0417    1.7835 C.3     1  UNL1        0.1895
      8 O          25.6390   75.4282    2.1246 O.3     1  UNL1       -0.3779
      9 C          24.2567   73.6472    1.1541 C.3     1  UNL1        0.1713
     10 C          23.9413   72.2727    1.7752 C.3     1  UNL1        0.1764
     11 O          25.0462   71.9218    2.6256 O.3     1  UNL1       -0.3308
     12 O          23.2506   74.6020    1.4989 O.3     1  UNL1       -0.3794
     13 H          25.6135   75.9217    1.2932 H       1  UNL1        0.2106
     14 H          23.5343   75.4508    1.1340 H       1  UNL1        0.2105
     15 N          27.0365   72.9283    3.4863 N.ar    1  UNL1       -0.2551
     16 C          27.6952   71.8364    3.0608 C.ar    1  UNL1        0.3323
     17 N          28.9660   71.6024    3.4384 N.ar    1  UNL1       -0.2743
     18 C          29.5990   72.4615    4.2626 C.ar    1  UNL1        0.2626
     19 C          28.9153   73.6119    4.7229 C.ar    1  UNL1        0.0795
     20 C          27.6429   73.8250    4.3242 C.ar    1  UNL1        0.0869
     21 O          27.1378   71.0523    2.3171 O.2     1  UNL1       -0.2464
     22 O          30.7464   72.2485    4.6085 O.2     1  UNL1       -0.2670
     23 H          29.4275   70.8121    3.1181 H       1  UNL1        0.1734
     24 O          20.7960   70.4987   -1.3087 O.3     1  UNL1       -0.2703
     25 P          21.2681   71.3828   -2.5676 P.3     1  UNL1        0.2208
     26 O          22.7323   71.2562   -2.7377 O.2     1  UNL1       -0.5170
     27 O          20.8899   72.9268   -2.3120 O.3     1  UNL1       -0.4371
     28 O          20.5265   70.8633   -3.8982 O.3     1  UNL1       -0.2865
     29 C          19.6464   71.9080   -4.3169 C.3     1  UNL1        0.2611
     30 C          18.4012   71.2927   -4.9579 C.3     1  UNL1        0.1582
     31 C          18.8259   70.4316   -6.1527 C.3     1  UNL1        0.1625
     32 C          19.6878   71.2844   -7.0897 C.3     1  UNL1        0.1686
     33 C          20.8380   71.8979   -6.2883 C.3     1  UNL1        0.1760
     34 O          17.6656   69.9730   -6.8490 O.3     1  UNL1       -0.3801
     35 O          20.2153   70.4634   -8.1334 O.3     1  UNL1       -0.3794
     36 O          20.3150   72.7404   -5.2621 O.3     1  UNL1       -0.3263
     37 H          17.9785   69.4368   -7.5905 H       1  UNL1        0.2105
     38 H          20.7508   71.0386   -8.6982 H       1  UNL1        0.2105
     39 C          16.4164   70.7068   -3.6727 C.2     1  UNL1        0.2231
     40 C          15.7007   69.8489   -2.6608 C.3     1  UNL1        0.0946
     41 N          17.7053   70.4593   -3.9752 N.am    1  UNL1       -0.2994
     42 O          15.8319   71.6207   -4.2144 O.2     1  UNL1       -0.2751
     43 H          18.1733   69.7281   -3.5417 H       1  UNL1        0.1496
     44 C          21.7237   72.7257   -7.2218 C.3     1  UNL1        0.1693
     45 O          23.0841   72.3123   -7.0790 O.3     1  UNL1       -0.3794
     46 H          23.6071   72.8573   -7.6824 H       1  UNL1        0.2105
@<TRIPOS>BOND
     1    29    30    1
     2    29    28    1
     3    29    36    1
     4    30    31    1
     5    30    41    1
     6    31    32    1
     7    31    34    1
     8    32    33    1
     9    32    35    1
    10    33    44    1
    11    33    36    1
    12    44    45    1
    13    39    40    1
    14    39    41   am
    15    39    42    2
    16    41    43    1
    17    28    25    1
    18    34    37    1
    19    35    38    1
    20    45    46    1
    21    15    16   ar
    22    15    20   ar
    23    15     6    1
    24    16    17   ar
    25    16    21    2
    26    17    18   ar
    27    17    23    1
    28    18    19   ar
    29    18    22    2
    30    19    20   ar
    31     6     7    1
    32     6    11    1
    33     7     8    1
    34     7     9    1
    35     8    13    1
    36     9    10    1
    37     9    12    1
    38    10    11    1
    39    10     5    1
    40    12    14    1
    41     5     4    1
    42     4     1    1
    43     1     2    2
    44     1     3    1
    45     1    24    1
    46    24    25    1
    47    25    26    2
    48    25    27    1
@<TRIPOS>MOLECULE
UD1
 46 48 0 0 0
SMALL
GASTEIGER

@<TRIPOS>ATOM
      1 P          16.4512   69.5817   -2.9426 P.3     1  UNL1        0.2189
      2 O          15.9542   69.0933   -4.2477 O.2     1  UNL1       -0.5170
      3 O          17.1258   68.3629   -2.1350 O.3     1  UNL1       -0.4371
      4 O          15.2216   70.1747   -2.0885 O.3     1  UNL1       -0.3112
      5 C          15.0204   69.2910   -0.9844 C.3     1  UNL1        0.1811
      6 C          12.1697   68.2102    0.9215 C.3     1  UNL1        0.2383
      7 C          12.4764   69.6321    1.4545 C.3     1  UNL1        0.1895
      8 O          11.2825   70.2834    1.8900 O.3     1  UNL1       -0.3779
      9 C          13.0617   70.3309    0.1998 C.3     1  UNL1        0.1713
     10 C          13.5235   69.1657   -0.6966 C.3     1  UNL1        0.1764
     11 O          13.2634   67.9452    0.0176 O.3     1  UNL1       -0.3308
     12 O          12.0561   71.1068   -0.4557 O.3     1  UNL1       -0.3794
     13 H          11.5414   71.1591    2.2088 H       1  UNL1        0.2106
     14 H          11.7666   71.7791    0.1754 H       1  UNL1        0.2105
     15 N          12.1562   67.2374    2.0146 N.ar    1  UNL1       -0.2551
     16 C          13.3161   66.7422    2.4802 C.ar    1  UNL1        0.3323
     17 N          13.3340   65.8492    3.4874 N.ar    1  UNL1       -0.2743
     18 C          12.1797   65.4278    4.0424 C.ar    1  UNL1        0.2626
     19 C          10.9511   65.9365    3.5580 C.ar    1  UNL1        0.0795
     20 C          10.9624   66.8353    2.5503 C.ar    1  UNL1        0.0869
     21 O          14.3654   67.1126    1.9899 O.2     1  UNL1       -0.2464
     22 O          12.1944   64.6169    4.9499 O.2     1  UNL1       -0.2670
     23 H          14.1800   65.5061    3.8139 H       1  UNL1        0.1734
     24 O          17.5442   70.7377   -3.1830 O.3     1  UNL1       -0.2703
     25 P          18.9870   70.0256   -3.1585 P.3     1  UNL1        0.2208
     26 O          18.8263   68.5769   -3.4121 O.2     1  UNL1       -0.5170
     27 O          19.6700   70.2448   -1.7170 O.3     1  UNL1       -0.4371
     28 O          19.9239   70.6692   -4.2980 O.3     1  UNL1       -0.2865
     29 C          19.7911   72.0877   -4.1915 C.3     1  UNL1        0.2611
     30 C          19.4898   72.6719   -5.5727 C.3     1  UNL1        0.1582
     31 C          20.6285   72.3055   -6.5312 C.3     1  UNL1        0.1625
     32 C          21.9556   72.7529   -5.9094 C.3     1  UNL1        0.1686
     33 C          22.0723   72.1599   -4.5037 C.3     1  UNL1        0.1760
     34 O          20.4340   72.9688   -7.7816 O.3     1  UNL1       -0.3801
     35 O          23.0409   72.2912   -6.7160 O.3     1  UNL1       -0.3794
     36 O          21.0050   72.6408   -3.6875 O.3     1  UNL1       -0.3263
     37 H          21.1706   72.7105   -8.3525 H       1  UNL1        0.2105
     38 H          23.8551   72.5934   -6.2890 H       1  UNL1        0.2105
     39 C          18.2386   71.0320   -6.8688 C.2     1  UNL1        0.2231
     40 C          16.9412   70.4641   -7.3849 C.3     1  UNL1        0.0946
     41 N          18.2297   72.1195   -6.0740 N.am    1  UNL1       -0.2994
     42 O          19.2911   70.5104   -7.1695 O.2     1  UNL1       -0.2751
     43 H          17.3876   72.5372   -5.8333 H       1  UNL1        0.1496
     44 C          23.4095   72.5743   -3.8861 C.3     1  UNL1        0.1693
     45 O          24.0741   71.4197   -3.3691 O.3     1  UNL1       -0.3794
     46 H          24.9096   71.7241   -2.9899 H       1  UNL1        0.2105
@<TRIPOS>BOND
     1    29    30    1
     2    29    28    1
     3    29    36    1
     4    30    31    1
     5    30    41    1
     6    31    32    1
     7    31    34    1
     8    32    33    1
     9    32    35    1
    10    33    44    1
    11    33    36    1
    12    44    45    1
    13    39    40    1
    14    39    41   am
    15    39    42    2
    16    41    43    1
    17    28    25    1
    18    34    37    1
    19    35    38    1
    20    45    46    1
    21    15    16   ar
    22    15    20   ar
    23    15     6    1
    24    16    17   ar
    25    16    21    2
    26    17    18   ar
    27    17    23    1
    28    18    19   ar
    29    18    22    2
    30    19    20   ar
    31     6     7    1
    32     6    11    1
    33     7     8    1
    34     7     9    1
    35     8    13    1
    36     9    10    1
    37     9    12    1
    38    10    11    1
    39    10     5    1
    40    12    14    1
    41     5     4    1
    42     4     1    1
    43     1     2    2
    44     1     3    1
    45     1    24    1
    46    24    25    1
    47    25    26    2
    48    25    27    1
@<TRIPOS>MOLECULE
UD1
 46 48 0 0 0
SMALL
GASTEIGER

@<TRIPOS>ATOM
      1 P          19.5316   72.2000   -1.0332 P.3     1  UNL1        0.2189
      2 O          19.4261   73.2027    0.0495 O.2     1  UNL1       -0.5170
      3 O          20.5141   72.7529   -2.1828 O.3     1  UNL1       -0.4371
      4 O          18.0725   71.9315   -1.6592 O.3     1  UNL1       -0.3112
      5 C          18.0308   72.6077   -2.9167 C.3     1  UNL1        0.1811
      6 C          16.8925   70.9800   -5.9137 C.3     1  UNL1        0.2383
      7 C          17.2584   69.8184   -4.9560 C.3     1  UNL1        0.1895
      8 O          16.4377   68.6758   -5.2016 O.3     1  UNL1       -0.3779
      9 C          16.9498   70.4329   -3.5660 C.3     1  UNL1        0.1713
     10 C          16.9791   71.9535   -3.8140 C.3     1  UNL1        0.1764
     11 O          17.3205   72.1569   -5.1958 O.3     1  UNL1       -0.3308
     12 O          15.6599   70.0185   -3.1109 O.3     1  UNL1       -0.3794
     13 H          16.7151   67.9921   -4.5762 H       1  UNL1        0.2106
     14 H          15.6874   69.0556   -3.0326 H       1  UNL1        0.2105
     15 N          17.6155   70.8565   -7.1800 N.ar    1  UNL1       -0.2551
     16 C          16.9394   70.5830   -8.3093 C.ar    1  UNL1        0.3323
     17 N          17.5779   70.4676   -9.4888 N.ar    1  UNL1       -0.2743
     18 C          18.9163   70.6167   -9.5543 C.ar    1  UNL1        0.2626
     19 C          19.6412   70.8990   -8.3721 C.ar    1  UNL1        0.0795
     20 C          18.9750   71.0147   -7.2033 C.ar    1  UNL1        0.0869
     21 O          15.7319   70.4458   -8.2664 O.2     1  UNL1       -0.2464
     22 O          19.4953   70.5079  -10.6194 O.2     1  UNL1       -0.2670
     23 H          17.0737   70.2747  -10.2943 H       1  UNL1        0.1734
     24 O          20.1207   70.8265   -0.4372 O.3     1  UNL1       -0.2703
     25 P          21.6708   71.0939   -0.0982 P.3     1  UNL1        0.2208
     26 O          22.4989   70.7550   -1.2765 O.2     1  UNL1       -0.5170
     27 O          22.1138   70.1777    1.1494 O.3     1  UNL1       -0.4371
     28 O          21.8798   72.6452    0.2762 O.3     1  UNL1       -0.2865
     29 C          23.2574   72.8071    0.6185 C.3     1  UNL1        0.2611
     30 C          23.3796   73.8274    1.7517 C.3     1  UNL1        0.1582
     31 C          22.7757   75.1597    1.2938 C.3     1  UNL1        0.1625
     32 C          23.4366   75.5694   -0.0266 C.3     1  UNL1        0.1686
     33 C          23.3072   74.4186   -1.0267 C.3     1  UNL1        0.1760
     34 O          23.0170   76.1605    2.2846 O.3     1  UNL1       -0.3801
     35 O          22.7868   76.7312   -0.5460 O.3     1  UNL1       -0.3794
     36 O          23.9788   73.2645   -0.5232 O.3     1  UNL1       -0.3263
     37 H          22.6211   76.9796    1.9566 H       1  UNL1        0.2105
     38 H          23.2325   76.9536   -1.3756 H       1  UNL1        0.2105
     39 C          23.1865   73.5001    4.1579 C.2     1  UNL1        0.2231
     40 C          22.4435   72.9983    5.3697 C.3     1  UNL1        0.0946
     41 N          22.6580   73.3406    2.9292 N.am    1  UNL1       -0.2994
     42 O          24.2607   74.0470    4.2888 O.2     1  UNL1       -0.2751
     43 H          21.7985   72.9027    2.8242 H       1  UNL1        0.1496
     44 C          23.9358   74.8300   -2.3597 C.3     1  UNL1        0.1693
     45 O          25.0056   75.7465   -2.1197 O.3     1  UNL1       -0.3794
     46 H          25.3729   75.9801   -2.9829 H       1  UNL1        0.2105
@<TRIPOS>BOND
     1    29    30    1
     2    29    28    1
     3    29    36    1
     4    30    31    1
     5    30    41    1
     6    31    32    1
     7    31    34    1
     8    32    33    1
     9    32    35    1
    10    33    44    1
    11    33    36    1
    12    44    45    1
    13    39    40    1
    14    39    41   am
    15    39    42    2
    16    41    43    1
    17    28    25    1
    18    34    37    1
    19    35    38    1
    20    45    46    1
    21    15    16   ar
    22    15    20   ar
    23    15     6    1
    24    16    17   ar
    25    16    21    2
    26    17    18   ar
    27    17    23    1
    28    18    19   ar
    29    18    22    2
    30    19    20   ar
    31     6     7    1
    32     6    11    1
    33     7     8    1
    34     7     9    1
    35     8    13    1
    36     9    10    1
    37     9    12    1
    38    10    11    1
    39    10     5    1
    40    12    14    1
    41     5     4    1
    42     4     1    1
    43     1     2    2
    44     1     3    1
    45     1    24    1
    46    24    25    1
    47    25    26    2
    48    25    27    1
@<TRIPOS>MOLECULE
UD1
 46 48 0 0 0
SMALL
GASTEIGER

@<TRIPOS>ATOM
      1 P          21.4615   71.1818    0.0767 P.3     1  UNL1        0.2189
      2 O          20.7390   72.3258    0.6749 O.2     1  UNL1       -0.5170
      3 O          21.6298   70.0185    1.1772 O.3     1  UNL1       -0.4371
      4 O          22.9155   71.6656   -0.4180 O.3     1  UNL1       -0.3112
      5 C          23.8582   71.1978    0.5479 C.3     1  UNL1        0.1811
      6 C          25.6790   73.0868    3.0063 C.3     1  UNL1        0.2383
      7 C          25.6759   73.9895    1.7472 C.3     1  UNL1        0.1895
      8 O          25.6934   75.3709    2.1086 O.3     1  UNL1       -0.3779
      9 C          24.3297   73.6097    1.0775 C.3     1  UNL1        0.1713
     10 C          23.9933   72.2278    1.6704 C.3     1  UNL1        0.1764
     11 O          25.0748   71.8602    2.5437 O.3     1  UNL1       -0.3308
     12 O          23.3187   74.5636    1.4101 O.3     1  UNL1       -0.3794
     13 H          25.6910   75.8763    1.2839 H       1  UNL1        0.2106
     14 H          23.6149   75.4163    1.0649 H       1  UNL1        0.2105
     15 N          27.0461   72.8461    3.4695 N.ar    1  UNL1       -0.2551
     16 C          27.7165   71.7652    3.0341 C.ar    1  UNL1        0.3323
     17 N          28.9764   71.5209    3.4404 N.ar    1  UNL1       -0.2743
     18 C          29.5863   72.3579    4.3037 C.ar    1  UNL1        0.2626
     19 C          28.8900   73.4964    4.7747 C.ar    1  UNL1        0.0795
     20 C          27.6290   73.7203    4.3468 C.ar    1  UNL1        0.0869
     21 O          27.1799   71.0010    2.2551 O.2     1  UNL1       -0.2464
     22 O          30.7237   72.1354    4.6755 O.2     1  UNL1       -0.2670
     23 H          29.4468   70.7389    3.1125 H       1  UNL1        0.1734
     24 O          20.6280   70.6177   -1.1787 O.3     1  UNL1       -0.2703
     25 P          20.8584   71.6501   -2.3913 P.3     1  UNL1        0.2208
     26 O          21.9891   71.1866   -3.2254 O.2     1  UNL1       -0.5170
     27 O          21.1926   73.1093   -1.7987 O.3     1  UNL1       -0.4371
     28 O          19.5258   71.7299   -3.2904 O.3     1  UNL1       -0.2865
     29 C          19.6093   70.6746   -4.2499 C.3     1  UNL1        0.2611
     30 C          19.3679   71.2439   -5.6490 C.3     1  UNL1        0.1582
     31 C          17.9851   71.9042   -5.6898 C.3     1  UNL1        0.1625
     32 C          16.9427   70.8885   -5.2103 C.3     1  UNL1        0.1686
     33 C          17.3657   70.3482   -3.8426 C.3     1  UNL1        0.1760
     34 O          17.6861   72.3069   -7.0276 O.3     1  UNL1       -0.3801
     35 O          15.6690   71.5265   -5.1006 O.3     1  UNL1       -0.3794
     36 O          18.6250   69.6862   -3.9541 O.3     1  UNL1       -0.3263
     37 H          16.8101   72.7164   -7.0069 H       1  UNL1        0.2105
     38 H          15.0441   70.8532   -4.7960 H       1  UNL1        0.2105
     39 C          21.2101   72.0641   -7.0157 C.2     1  UNL1        0.2231
     40 C          22.2690   73.0894   -7.3318 C.3     1  UNL1        0.0946
     41 N          20.3963   72.2399   -5.9569 N.am    1  UNL1       -0.2994
     42 O          21.0912   71.0802   -7.7142 O.2     1  UNL1       -0.2751
     43 H          20.4915   73.0271   -5.3976 H       1  UNL1        0.1496
     44 C          16.3142   69.3568   -3.3399 C.3     1  UNL1        0.1693
     45 O          16.6519   68.9334   -2.0175 O.3     1  UNL1       -0.3794
     46 H          15.9663   68.3112   -1.7392 H       1  UNL1        0.2105
@<TRIPOS>BOND
     1    29    30    1
     2    29    28    1
     3    29    36    1
     4    30    31    1
     5    30    41    1
     6    31    32    1
     7    31    34    1
     8    32    33    1
     9    32    35    1
    10    33    44    1
    11    33    36    1
    12    44    45    1
    13    39    40    1
    14    39    41   am
    15    39    42    2
    16    41    43    1
    17    28    25    1
    18    34    37    1
    19    35    38    1
    20    45    46    1
    21    15    16   ar
    22    15    20   ar
    23    15     6    1
    24    16    17   ar
    25    16    21    2
    26    17    18   ar
    27    17    23    1
    28    18    19   ar
    29    18    22    2
    30    19    20   ar
    31     6     7    1
    32     6    11    1
    33     7     8    1
    34     7     9    1
    35     8    13    1
    36     9    10    1
    37     9    12    1
    38    10    11    1
    39    10     5    1
    40    12    14    1
    41     5     4    1
    42     4     1    1
    43     1     2    2
    44     1     3    1
    45     1    24    1
    46    24    25    1
    47    25    26    2
    48    25    27    1
@<TRIPOS>MOLECULE
UD1
 46 48 0 0 0
SMALL
GASTEIGER

@<TRIPOS>ATOM
      1 P          16.7773   69.6297   -2.9952 P.3     1  UNL1        0.2189
      2 O          16.4452   69.1040   -4.3376 O.2     1  UNL1       -0.5170
      3 O          16.9203   68.4051   -1.9595 O.3     1  UNL1       -0.4371
      4 O          15.6043   70.6156   -2.5002 O.3     1  UNL1       -0.3112
      5 C          15.2454   70.2023   -1.1809 C.3     1  UNL1        0.1811
      6 C          12.4226   68.4642    0.2112 C.3     1  UNL1        0.2383
      7 C          12.2600   69.9246    0.7023 C.3     1  UNL1        0.1895
      8 O          10.8811   70.2601    0.8606 O.3     1  UNL1       -0.3779
      9 C          12.8961   70.7315   -0.4593 C.3     1  UNL1        0.1713
     10 C          13.7980   69.7082   -1.1762 C.3     1  UNL1        0.1764
     11 O          13.7061   68.4710   -0.4493 O.3     1  UNL1       -0.3308
     12 O          11.8839   71.2206   -1.3419 O.3     1  UNL1       -0.3794
     13 H          10.8492   71.1769    1.1671 H       1  UNL1        0.2106
     14 H          11.3188   71.8067   -0.8211 H       1  UNL1        0.2105
     15 N          12.4282   67.5339    1.3407 N.ar    1  UNL1       -0.2551
     16 C          11.2868   66.9272    1.7099 C.ar    1  UNL1        0.3323
     17 N          11.2633   66.0638    2.7426 N.ar    1  UNL1       -0.2743
     18 C          12.3909   65.7997    3.4331 C.ar    1  UNL1        0.2626
     19 C          13.5983   66.4361    3.0589 C.ar    1  UNL1        0.0795
     20 C          13.5945   67.2936    2.0158 C.ar    1  UNL1        0.0869
     21 O          10.2617   67.1551    1.0969 O.2     1  UNL1       -0.2464
     22 O          12.3698   65.0230    4.3700 O.2     1  UNL1       -0.2670
     23 H          10.4321   65.6316    2.9921 H       1  UNL1        0.1734
     24 O          18.1656   70.4401   -3.0645 O.3     1  UNL1       -0.2703
     25 P          17.8958   71.7484   -3.9616 P.3     1  UNL1        0.2208
     26 O          17.4658   72.8639   -3.0901 O.2     1  UNL1       -0.5170
     27 O          16.7406   71.4332   -5.0378 O.3     1  UNL1       -0.4371
     28 O          19.2474   72.1601   -4.7325 O.3     1  UNL1       -0.2865
     29 C          20.0859   71.0034   -4.7455 C.3     1  UNL1        0.2611
     30 C          21.5514   71.4419   -4.7480 C.3     1  UNL1        0.1582
     31 C          21.8118   72.3130   -5.9821 C.3     1  UNL1        0.1625
     32 C          21.3589   71.5451   -7.2284 C.3     1  UNL1        0.1686
     33 C          19.9067   71.1014   -7.0400 C.3     1  UNL1        0.1760
     34 O          23.2073   72.6049   -6.0762 O.3     1  UNL1       -0.3801
     35 O          21.4561   72.3935   -8.3740 O.3     1  UNL1       -0.3794
     36 O          19.8107   70.2317   -5.9126 O.3     1  UNL1       -0.3263
     37 H          23.3255   73.1534   -6.8640 H       1  UNL1        0.2105
     38 H          21.1615   71.8720   -9.1341 H       1  UNL1        0.2105
     39 C          23.0355   72.1084   -2.9349 C.2     1  UNL1        0.2231
     40 C          23.3261   72.9013   -1.6862 C.3     1  UNL1        0.0946
     41 N          21.8343   72.2123   -3.5352 N.am    1  UNL1       -0.2994
     42 O          23.8832   71.3762   -3.3991 O.2     1  UNL1       -0.2751
     43 H          21.1556   72.7980   -3.1638 H       1  UNL1        0.1496
     44 C          19.4342   70.3614   -8.2931 C.3     1  UNL1        0.1693
     45 O          18.8920   71.2996   -9.2248 O.3     1  UNL1       -0.3794
     46 H          18.6067   70.7935   -9.9975 H       1  UNL1        0.2105
@<TRIPOS>BOND
     1    29    30    1
     2    29    28    1
     3    29    36    1
     4    30    31    1
     5    30    41    1
     6    31    32    1
     7    31    34    1
     8    32    33    1
     9    32    35    1
    10    33    44    1
    11    33    36    1
    12    44    45    1
    13    39    40    1
    14    39    41   am
    15    39    42    2
    16    41    43    1
    17    28    25    1
    18    34    37    1
    19    35    38    1
    20    45    46    1
    21    15    16   ar
    22    15    20   ar
    23    15     6    1
    24    16    17   ar
    25    16    21    2
    26    17    18   ar
    27    17    23    1
    28    18    19   ar
    29    18    22    2
    30    19    20   ar
    31     6     7    1
    32     6    11    1
    33     7     8    1
    34     7     9    1
    35     8    13    1
    36     9    10    1
    37     9    12    1
    38    10    11    1
    39    10     5    1
    40    12    14    1
    41     5     4    1
    42     4     1    1
    43     1     2    2
    44     1     3    1
    45     1    24    1
    46    24    25    1
    47    25    26    2
    48    25    27    1
@<TRIPOS>MOLECULE
UD1
 46 48 0 0 0
SMALL
GASTEIGER

@<TRIPOS>ATOM
      1 P          23.1772   72.7111   -4.1009 P.3     1  UNL1        0.2189
      2 O          24.1129   71.6488   -3.6710 O.2     1  UNL1       -0.5170
      3 O          23.3962   73.0181   -5.6662 O.3     1  UNL1       -0.4371
      4 O          23.4564   74.0484   -3.2486 O.3     1  UNL1       -0.3112
      5 C          24.1562   74.9489   -4.1087 C.3     1  UNL1        0.1811
      6 C          27.7031   75.5179   -4.2591 C.3     1  UNL1        0.2383
      7 C          27.0777   76.9295   -4.3879 C.3     1  UNL1        0.1895
      8 O          27.9373   77.9225   -3.8274 O.3     1  UNL1       -0.3779
      9 C          25.7783   76.7874   -3.5533 C.3     1  UNL1        0.1713
     10 C          25.5264   75.2678   -3.5087 C.3     1  UNL1        0.1764
     11 O          26.5591   74.6381   -4.2860 O.3     1  UNL1       -0.3308
     12 O          25.9702   77.3081   -2.2362 O.3     1  UNL1       -0.3794
     13 H          27.4923   78.7739   -3.9396 H       1  UNL1        0.2106
     14 H          26.1825   78.2458   -2.3348 H       1  UNL1        0.2105
     15 N          28.5946   75.2400   -5.3858 N.ar    1  UNL1       -0.2551
     16 C          29.7825   74.6502   -5.1658 C.ar    1  UNL1        0.3323
     17 N          30.6208   74.3791   -6.1836 N.ar    1  UNL1       -0.2743
     18 C          30.2832   74.7058   -7.4474 C.ar    1  UNL1        0.2626
     19 C          29.0383   75.3326   -7.6925 C.ar    1  UNL1        0.0795
     20 C          28.2142   75.5882   -6.6538 C.ar    1  UNL1        0.0869
     21 O          30.1011   74.3494   -4.0315 O.2     1  UNL1       -0.2464
     22 O          31.0425   74.4655   -8.3678 O.2     1  UNL1       -0.2670
     23 H          31.4717   73.9488   -6.0072 H       1  UNL1        0.1734
     24 O          21.6633   72.2247   -3.8551 O.3     1  UNL1       -0.2703
     25 P          20.8786   72.4267   -5.2453 P.3     1  UNL1        0.2208
     26 O          21.5596   71.6600   -6.3118 O.2     1  UNL1       -0.5170
     27 O          20.8661   73.9892   -5.6332 O.3     1  UNL1       -0.4371
     28 O          19.3651   71.9017   -5.0899 O.3     1  UNL1       -0.2865
     29 C          19.3858   70.4959   -5.3443 C.3     1  UNL1        0.2611
     30 C          18.3048   70.1525   -6.3706 C.3     1  UNL1        0.1582
     31 C          16.9393   70.5833   -5.8235 C.3     1  UNL1        0.1625
     32 C          16.7462   69.9565   -4.4386 C.3     1  UNL1        0.1686
     33 C          17.9437   70.3174   -3.5570 C.3     1  UNL1        0.1760
     34 O          15.9074   70.1344   -6.7039 O.3     1  UNL1       -0.3801
     35 O          15.5470   70.4615   -3.8484 O.3     1  UNL1       -0.3794
     36 O          19.1400   69.7908   -4.1296 O.3     1  UNL1       -0.3263
     37 H          15.0680   70.4266   -6.3225 H       1  UNL1        0.2105
     38 H          15.4648   70.0427   -2.9798 H       1  UNL1        0.2105
     39 C          18.9502   70.1713   -8.7195 C.2     1  UNL1        0.2231
     40 C          19.2303   70.8999  -10.0091 C.3     1  UNL1        0.0946
     41 N          18.5765   70.8597   -7.6238 N.am    1  UNL1       -0.2994
     42 O          19.0619   68.9651   -8.6681 O.2     1  UNL1       -0.2751
     43 H          18.4872   71.8251   -7.6646 H       1  UNL1        0.1496
     44 C          17.7451   69.7232   -2.1610 C.3     1  UNL1        0.1693
     45 O          17.0745   68.4660   -2.2691 O.3     1  UNL1       -0.3794
     46 H          16.9692   68.1268   -1.3699 H       1  UNL1        0.2105
@<TRIPOS>BOND
     1    29    30    1
     2    29    28    1
     3    29    36    1
     4    30    31    1
     5    30    41    1
     6    31    32    1
     7    31    34    1
     8    32    33    1
     9    32    35    1
    10    33    44    1
    11    33    36    1
    12    44    45    1
    13    39    40    1
    14    39    41   am
    15    39    42    2
    16    41    43    1
    17    28    25    1
    18    34    37    1
    19    35    38    1
    20    45    46    1
    21    15    16   ar
    22    15    20   ar
    23    15     6    1
    24    16    17   ar
    25    16    21    2
    26    17    18   ar
    27    17    23    1
    28    18    19   ar
    29    18    22    2
    30    19    20   ar
    31     6     7    1
    32     6    11    1
    33     7     8    1
    34     7     9    1
    35     8    13    1
    36     9    10    1
    37     9    12    1
    38    10    11    1
    39    10     5    1
    40    12    14    1
    41     5     4    1
    42     4     1    1
    43     1     2    2
    44     1     3    1
    45     1    24    1
    46    24    25    1
    47    25    26    2
    48    25    27    1
@<TRIPOS>MOLECULE
UD1
 46 48 0 0 0
SMALL
GASTEIGER

@<TRIPOS>ATOM
      1 P          21.6592   72.4210   -6.2762 P.3     1  UNL1        0.2189
      2 O          20.6689   73.4244   -6.7247 O.2     1  UNL1       -0.5170
      3 O          23.1436   72.9397   -6.6231 O.3     1  UNL1       -0.4371
      4 O          21.3889   71.0256   -7.0329 O.3     1  UNL1       -0.3112
      5 C          20.5790   71.3222   -8.1715 C.3     1  UNL1        0.1811
      6 C          17.4342   70.0825   -6.9466 C.3     1  UNL1        0.2383
      7 C          17.0468   71.1325   -8.0180 C.3     1  UNL1        0.1895
      8 O          15.8144   70.7862   -8.6508 O.3     1  UNL1       -0.3779
      9 C          18.2293   71.0306   -9.0162 C.3     1  UNL1        0.1713
     10 C          19.3634   70.3943   -8.1896 C.3     1  UNL1        0.1764
     11 O          18.8689   70.2102   -6.8521 O.3     1  UNL1       -0.3308
     12 O          17.8794   70.1965  -10.1229 O.3     1  UNL1       -0.3794
     13 H          15.6308   71.4765   -9.3030 H       1  UNL1        0.2106
     14 H          17.1285   70.6168  -10.5629 H       1  UNL1        0.2105
     15 N          16.8028   70.3924   -5.6634 N.ar    1  UNL1       -0.2551
     16 C          16.3915   69.3925   -4.8644 C.ar    1  UNL1        0.3323
     17 N          15.8111   69.6481   -3.6770 N.ar    1  UNL1       -0.2743
     18 C          15.6238   70.9205   -3.2721 C.ar    1  UNL1        0.2626
     19 C          16.0465   71.9829   -4.1061 C.ar    1  UNL1        0.0795
     20 C          16.6307   71.6980   -5.2897 C.ar    1  UNL1        0.0869
     21 O          16.5536   68.2397   -5.2156 O.2     1  UNL1       -0.2464
     22 O          15.0948   71.1528   -2.2009 O.2     1  UNL1       -0.2670
     23 H          15.5249   68.9145   -3.1112 H       1  UNL1        0.1734
     24 O          21.5227   72.2051   -4.6876 O.3     1  UNL1       -0.2703
     25 P          22.6137   73.1624   -3.9929 P.3     1  UNL1        0.2208
     26 O          22.5482   74.5086   -4.6029 O.2     1  UNL1       -0.5170
     27 O          24.0852   72.5464   -4.2104 O.3     1  UNL1       -0.4371
     28 O          22.3071   73.2720   -2.4167 O.3     1  UNL1       -0.2865
     29 C          23.1972   72.3696   -1.7575 C.3     1  UNL1        0.2611
     30 C          22.3941   71.4540   -0.8319 C.3     1  UNL1        0.1582
     31 C          21.6388   72.3118    0.1896 C.3     1  UNL1        0.1625
     32 C          22.6413   73.2329    0.8929 C.3     1  UNL1        0.1686
     33 C          23.4237   74.0166   -0.1630 C.3     1  UNL1        0.1760
     34 O          21.0053   71.4652    1.1506 O.3     1  UNL1       -0.3801
     35 O          21.9398   74.1424    1.7428 O.3     1  UNL1       -0.3794
     36 O          24.1474   73.1123   -0.9966 O.3     1  UNL1       -0.3263
     37 H          20.5430   72.0447    1.7717 H       1  UNL1        0.2105
     38 H          22.6070   74.7026    2.1642 H       1  UNL1        0.2105
     39 C          20.1617   71.0916   -1.7370 C.2     1  UNL1        0.2231
     40 C          19.1774   70.2899   -2.5499 C.3     1  UNL1        0.0946
     41 N          21.4377   70.6758   -1.6218 N.am    1  UNL1       -0.2994
     42 O          19.8048   72.1109   -1.1859 O.2     1  UNL1       -0.2751
     43 H          21.7235   69.8600   -2.0626 H       1  UNL1        0.1496
     44 C          24.4054   74.9637    0.5302 C.3     1  UNL1        0.1693
     45 O          24.9119   74.3428    1.7135 O.3     1  UNL1       -0.3794
     46 H          25.5246   74.9712    2.1188 H       1  UNL1        0.2105
@<TRIPOS>BOND
     1    29    30    1
     2    29    28    1
     3    29    36    1
     4    30    31    1
     5    30    41    1
     6    31    32    1
     7    31    34    1
     8    32    33    1
     9    32    35    1
    10    33    44    1
    11    33    36    1
    12    44    45    1
    13    39    40    1
    14    39    41   am
    15    39    42    2
    16    41    43    1
    17    28    25    1
    18    34    37    1
    19    35    38    1
    20    45    46    1
    21    15    16   ar
    22    15    20   ar
    23    15     6    1
    24    16    17   ar
    25    16    21    2
    26    17    18   ar
    27    17    23    1
    28    18    19   ar
    29    18    22    2
    30    19    20   ar
    31     6     7    1
    32     6    11    1
    33     7     8    1
    34     7     9    1
    35     8    13    1
    36     9    10    1
    37     9    12    1
    38    10    11    1
    39    10     5    1
    40    12    14    1
    41     5     4    1
    42     4     1    1
    43     1     2    2
    44     1     3    1
    45     1    24    1
    46    24    25    1
    47    25    26    2
    48    25    27    1
@<TRIPOS>MOLECULE
UD1
 46 48 0 0 0
SMALL
GASTEIGER

@<TRIPOS>ATOM
      1 P          21.1033   71.4768   -1.7264 P.3     1  UNL1        0.2189
      2 O          22.4131   70.9914   -2.2138 O.2     1  UNL1       -0.5170
      3 O          20.6149   70.5598   -0.4963 O.3     1  UNL1       -0.4371
      4 O          20.0235   71.3937   -2.9181 O.3     1  UNL1       -0.3112
      5 C          19.0376   70.4408   -2.5176 C.3     1  UNL1        0.1811
      6 C          17.2420   70.4821   -5.6323 C.3     1  UNL1        0.2383
      7 C          17.0779   69.0332   -5.1088 C.3     1  UNL1        0.1895
      8 O          15.8338   68.4745   -5.5322 O.3     1  UNL1       -0.3779
      9 C          17.0980   69.2381   -3.5717 C.3     1  UNL1        0.1713
     10 C          17.7883   70.6030   -3.3849 C.3     1  UNL1        0.1764
     11 O          18.1577   71.0798   -4.6900 O.3     1  UNL1       -0.3308
     12 O          15.7662   69.2687   -3.0536 O.3     1  UNL1       -0.3794
     13 H          15.7942   67.5764   -5.1755 H       1  UNL1        0.2106
     14 H          15.3690   68.4107   -3.2538 H       1  UNL1        0.2105
     15 N          17.8124   70.4860   -6.9799 N.ar    1  UNL1       -0.2551
     16 C          16.9974   70.4526   -8.0485 C.ar    1  UNL1        0.3323
     17 N          17.4942   70.4593   -9.2996 N.ar    1  UNL1       -0.2743
     18 C          18.8269   70.4905   -9.5013 C.ar    1  UNL1        0.2626
     19 C          19.6966   70.5199   -8.3852 C.ar    1  UNL1        0.0795
     20 C          19.1713   70.5178   -7.1413 C.ar    1  UNL1        0.0869
     21 O          15.7930   70.4243   -7.8828 O.2     1  UNL1       -0.2464
     22 O          19.2773   70.4918  -10.6321 O.2     1  UNL1       -0.2670
     23 H          16.8914   70.4397  -10.0589 H       1  UNL1        0.1734
     24 O          21.2449   73.0028   -1.2364 O.3     1  UNL1       -0.2703
     25 P          22.8152   73.2761   -1.0152 P.3     1  UNL1        0.2208
     26 O          23.4826   73.4080   -2.3290 O.2     1  UNL1       -0.5170
     27 O          23.4658   72.0466   -0.2046 O.3     1  UNL1       -0.4371
     28 O          23.0115   74.6348   -0.1749 O.3     1  UNL1       -0.2865
     29 C          24.1832   74.4622    0.6241 C.3     1  UNL1        0.2611
     30 C          23.8216   74.6519    2.0983 C.3     1  UNL1        0.1582
     31 C          23.2349   76.0544    2.2940 C.3     1  UNL1        0.1625
     32 C          24.2206   77.0816    1.7271 C.3     1  UNL1        0.1686
     33 C          24.5497   76.7102    0.2796 C.3     1  UNL1        0.1760
     34 O          23.0322   76.2986    3.6871 O.3     1  UNL1       -0.3801
     35 O          23.6304   78.3823    1.7659 O.3     1  UNL1       -0.3794
     36 O          25.1645   75.4230    0.2400 O.3     1  UNL1       -0.3263
     37 H          22.6628   77.1891    3.7639 H       1  UNL1        0.2105
     38 H          24.2827   78.9965    1.4001 H       1  UNL1        0.2105
     39 C          21.5190   73.9427    2.4581 C.2     1  UNL1        0.2231
     40 C          20.5014   72.9080    2.8654 C.3     1  UNL1        0.0946
     41 N          22.8326   73.6469    2.4934 N.am    1  UNL1       -0.2994
     42 O          21.1554   75.0423    2.0992 O.2     1  UNL1       -0.2751
     43 H          23.1239   72.7671    2.7808 H       1  UNL1        0.1496
     44 C          25.5087   77.7485   -0.3065 C.3     1  UNL1        0.1693
     45 O          26.0510   77.2573   -1.5339 O.3     1  UNL1       -0.3794
     46 H          26.6483   77.9397   -1.8689 H       1  UNL1        0.2105
@<TRIPOS>BOND
     1    29    30    1
     2    29    28    1
     3    29    36    1
     4    30    31    1
     5    30    41    1
     6    31    32    1
     7    31    34    1
     8    32    33    1
     9    32    35    1
    10    33    44    1
    11    33    36    1
    12    44    45    1
    13    39    40    1
    14    39    41   am
    15    39    42    2
    16    41    43    1
    17    28    25    1
    18    34    37    1
    19    35    38    1
    20    45    46    1
    21    15    16   ar
    22    15    20   ar
    23    15     6    1
    24    16    17   ar
    25    16    21    2
    26    17    18   ar
    27    17    23    1
    28    18    19   ar
    29    18    22    2
    30    19    20   ar
    31     6     7    1
    32     6    11    1
    33     7     8    1
    34     7     9    1
    35     8    13    1
    36     9    10    1
    37     9    12    1
    38    10    11    1
    39    10     5    1
    40    12    14    1
    41     5     4    1
    42     4     1    1
    43     1     2    2
    44     1     3    1
    45     1    24    1
    46    24    25    1
    47    25    26    2
    48    25    27    1
@<TRIPOS>MOLECULE
UD1
 46 48 0 0 0
SMALL
GASTEIGER

@<TRIPOS>ATOM
      1 P          16.4132   69.9501   -2.5520 P.3     1  UNL1        0.2189
      2 O          15.7471   71.2078   -2.9560 O.2     1  UNL1       -0.5170
      3 O          16.5700   68.9898   -3.8349 O.3     1  UNL1       -0.4371
      4 O          15.5243   69.2082   -1.4330 O.3     1  UNL1       -0.3112
      5 C          14.4150   70.0630   -1.1519 C.3     1  UNL1        0.1811
      6 C          12.0742   67.9191    0.5368 C.3     1  UNL1        0.2383
      7 C          11.5348   69.3509    0.7803 C.3     1  UNL1        0.1895
      8 O          10.1113   69.3483    0.8941 O.3     1  UNL1       -0.3779
      9 C          11.9858   70.0918   -0.5053 C.3     1  UNL1        0.1713
     10 C          13.1383   69.2268   -1.0511 C.3     1  UNL1        0.1764
     11 O          13.3358   68.1422   -0.1281 O.3     1  UNL1       -0.3308
     12 O          10.9126   70.1586   -1.4469 O.3     1  UNL1       -0.3794
     13 H           9.8406   70.2646    1.0445 H       1  UNL1        0.2106
     14 H          10.2019   70.6597   -1.0251 H       1  UNL1        0.2105
     15 N          12.2761   67.2175    1.8050 N.ar    1  UNL1       -0.2551
     16 C          11.2704   66.5021    2.3382 C.ar    1  UNL1        0.3323
     17 N          11.4290   65.8434    3.5015 N.ar    1  UNL1       -0.2743
     18 C          12.6049   65.8991    4.1590 C.ar    1  UNL1        0.2626
     19 C          13.6701   66.6534    3.6120 C.ar    1  UNL1        0.0795
     20 C          13.4854   67.3000    2.4410 C.ar    1  UNL1        0.0869
     21 O          10.2039   66.4423    1.7571 O.2     1  UNL1       -0.2464
     22 O          12.7479   65.3078    5.2132 O.2     1  UNL1       -0.2670
     23 H          10.6944   65.3284    3.8691 H       1  UNL1        0.1734
     24 O          17.8672   70.2826   -1.9485 O.3     1  UNL1       -0.2703
     25 P          18.9201   70.1158   -3.1539 P.3     1  UNL1        0.2208
     26 O          18.9287   68.7084   -3.6099 O.2     1  UNL1       -0.5170
     27 O          20.3915   70.5224   -2.6423 O.3     1  UNL1       -0.4371
     28 O          18.4949   71.0731   -4.3759 O.3     1  UNL1       -0.2865
     29 C          19.2565   70.6587   -5.5115 C.3     1  UNL1        0.2611
     30 C          20.0285   71.8570   -6.0664 C.3     1  UNL1        0.1582
     31 C          19.0346   72.9578   -6.4538 C.3     1  UNL1        0.1625
     32 C          17.9876   72.3616   -7.4006 C.3     1  UNL1        0.1686
     33 C          17.3672   71.1268   -6.7436 C.3     1  UNL1        0.1760
     34 O          19.7287   74.0203   -7.1101 O.3     1  UNL1       -0.3801
     35 O          16.9692   73.3303   -7.6578 O.3     1  UNL1       -0.3794
     36 O          18.3773   70.1461   -6.5103 O.3     1  UNL1       -0.3263
     37 H          19.0673   74.6890   -7.3353 H       1  UNL1        0.2105
     38 H          16.3320   72.9143   -8.2557 H       1  UNL1        0.2105
     39 C          22.2657   72.4519   -5.3077 C.2     1  UNL1        0.2231
     40 C          23.2114   72.9726   -4.2557 C.3     1  UNL1        0.0946
     41 N          20.9476   72.3633   -5.0449 N.am    1  UNL1       -0.2994
     42 O          22.6914   72.1118   -6.3908 O.2     1  UNL1       -0.2751
     43 H          20.6066   72.6351   -4.1780 H       1  UNL1        0.1496
     44 C          16.2967   70.5425   -7.6676 C.3     1  UNL1        0.1693
     45 O          16.7090   70.6901   -9.0279 O.3     1  UNL1       -0.3794
     46 H          16.0083   70.3106   -9.5753 H       1  UNL1        0.2105
@<TRIPOS>BOND
     1    29    30    1
     2    29    28    1
     3    29    36    1
     4    30    31    1
     5    30    41    1
     6    31    32    1
     7    31    34    1
     8    32    33    1
     9    32    35    1
    10    33    44    1
    11    33    36    1
    12    44    45    1
    13    39    40    1
    14    39    41   am
    15    39    42    2
    16    41    43    1
    17    28    25    1
    18    34    37    1
    19    35    38    1
    20    45    46    1
    21    15    16   ar
    22    15    20   ar
    23    15     6    1
    24    16    17   ar
    25    16    21    2
    26    17    18   ar
    27    17    23    1
    28    18    19   ar
    29    18    22    2
    30    19    20   ar
    31     6     7    1
    32     6    11    1
    33     7     8    1
    34     7     9    1
    35     8    13    1
    36     9    10    1
    37     9    12    1
    38    10    11    1
    39    10     5    1
    40    12    14    1
    41     5     4    1
    42     4     1    1
    43     1     2    2
    44     1     3    1
    45     1    24    1
    46    24    25    1
    47    25    26    2
    48    25    27    1
@<TRIPOS>MOLECULE
UD1
 46 48 0 0 0
SMALL
GASTEIGER

@<TRIPOS>ATOM
      1 P          22.2932   71.5234   -3.2550 P.3     1  UNL1        0.2189
      2 O          22.0021   72.1700   -4.5534 O.2     1  UNL1       -0.5170
      3 O          23.8540   71.1340   -3.1872 O.3     1  UNL1       -0.4371
      4 O          21.4017   70.1906   -3.1081 O.3     1  UNL1       -0.3112
      5 C          20.5230   70.1542   -4.2337 C.3     1  UNL1        0.1811
      6 C          17.0536   70.9881   -4.6756 C.3     1  UNL1        0.2383
      7 C          17.1178   69.4578   -4.9086 C.3     1  UNL1        0.1895
      8 O          15.8986   68.8289   -4.5119 O.3     1  UNL1       -0.3779
      9 C          18.2859   69.0357   -3.9799 C.3     1  UNL1        0.1713
     10 C          19.0799   70.3381   -3.7615 C.3     1  UNL1        0.1764
     11 O          18.4395   71.3667   -4.5356 O.3     1  UNL1       -0.3308
     12 O          17.7830   68.5348   -2.7394 O.3     1  UNL1       -0.3794
     13 H          16.0033   67.8825   -4.6822 H       1  UNL1        0.2106
     14 H          17.2477   67.7577   -2.9485 H       1  UNL1        0.2105
     15 N          16.4475   71.6634   -5.8236 N.ar    1  UNL1       -0.2551
     16 C          16.6043   71.1514   -7.0568 C.ar    1  UNL1        0.3323
     17 N          16.0547   71.7491   -8.1305 N.ar    1  UNL1       -0.2743
     18 C          15.3411   72.8839   -7.9854 C.ar    1  UNL1        0.2626
     19 C          15.1733   73.4370   -6.6936 C.ar    1  UNL1        0.0795
     20 C          15.7309   72.8140   -5.6333 C.ar    1  UNL1        0.0869
     21 O          17.2450   70.1284   -7.2038 O.2     1  UNL1       -0.2464
     22 O          14.8478   73.4278   -8.9561 O.2     1  UNL1       -0.2670
     23 H          16.1739   71.3633   -9.0120 H       1  UNL1        0.1734
     24 O          21.9401   72.5395   -2.0584 O.3     1  UNL1       -0.2703
     25 P          22.0450   71.7000   -0.6896 P.3     1  UNL1        0.2208
     26 O          23.3442   70.9937   -0.6426 O.2     1  UNL1       -0.5170
     27 O          20.8481   70.6252   -0.6252 O.3     1  UNL1       -0.4371
     28 O          21.9331   72.7014    0.5655 O.3     1  UNL1       -0.2865
     29 C          22.5222   73.9389    0.1622 C.3     1  UNL1        0.2611
     30 C          23.5783   74.3536    1.1882 C.3     1  UNL1        0.1582
     31 C          22.9143   74.4930    2.5627 C.3     1  UNL1        0.1625
     32 C          21.7197   75.4443    2.4357 C.3     1  UNL1        0.1686
     33 C          20.8021   74.9455    1.3174 C.3     1  UNL1        0.1760
     34 O          23.8556   75.0232    3.4977 O.3     1  UNL1       -0.3801
     35 O          20.9993   75.4742    3.6693 O.3     1  UNL1       -0.3794
     36 O          21.5106   74.9404    0.0786 O.3     1  UNL1       -0.3263
     37 H          23.3970   75.0937    4.3463 H       1  UNL1        0.2105
     38 H          20.2572   76.0829    3.5452 H       1  UNL1        0.2105
     39 C          24.5858   72.3815    2.2031 C.2     1  UNL1        0.2231
     40 C          25.6660   71.3320    2.2679 C.3     1  UNL1        0.0946
     41 N          24.6272   73.3336    1.2513 N.am    1  UNL1       -0.2994
     42 O          23.6794   72.3691    3.0084 O.2     1  UNL1       -0.2751
     43 H          25.3525   73.3439    0.6068 H       1  UNL1        0.1496
     44 C          19.5889   75.8709    1.2040 C.3     1  UNL1        0.1693
     45 O          18.5807   75.4502    2.1253 O.3     1  UNL1       -0.3794
     46 H          17.8358   76.0577    2.0216 H       1  UNL1        0.2105
@<TRIPOS>BOND
     1    29    30    1
     2    29    28    1
     3    29    36    1
     4    30    31    1
     5    30    41    1
     6    31    32    1
     7    31    34    1
     8    32    33    1
     9    32    35    1
    10    33    44    1
    11    33    36    1
    12    44    45    1
    13    39    40    1
    14    39    41   am
    15    39    42    2
    16    41    43    1
    17    28    25    1
    18    34    37    1
    19    35    38    1
    20    45    46    1
    21    15    16   ar
    22    15    20   ar
    23    15     6    1
    24    16    17   ar
    25    16    21    2
    26    17    18   ar
    27    17    23    1
    28    18    19   ar
    29    18    22    2
    30    19    20   ar
    31     6     7    1
    32     6    11    1
    33     7     8    1
    34     7     9    1
    35     8    13    1
    36     9    10    1
    37     9    12    1
    38    10    11    1
    39    10     5    1
    40    12    14    1
    41     5     4    1
    42     4     1    1
    43     1     2    2
    44     1     3    1
    45     1    24    1
    46    24    25    1
    47    25    26    2
    48    25    27    1
@<TRIPOS>MOLECULE
UD1
 46 48 0 0 0
SMALL
GASTEIGER

@<TRIPOS>ATOM
      1 P          22.8278   71.4193   -3.0646 P.3     1  UNL1        0.2189
      2 O          24.2129   70.9005   -3.1000 O.2     1  UNL1       -0.5170
      3 O          22.5934   72.4093   -4.3126 O.3     1  UNL1       -0.4371
      4 O          22.5919   72.2246   -1.6903 O.3     1  UNL1       -0.3112
      5 C          23.7094   71.9406   -0.8471 C.3     1  UNL1        0.1811
      6 C          23.0325   71.8862    2.6836 C.3     1  UNL1        0.2383
      7 C          21.7028   72.3539    2.0405 C.3     1  UNL1        0.1895
      8 O          20.5824   71.9319    2.8190 O.3     1  UNL1       -0.3779
      9 C          21.7302   71.6271    0.6708 C.3     1  UNL1        0.1713
     10 C          23.2194   71.2979    0.4514 C.3     1  UNL1        0.1764
     11 O          23.9475   71.8361    1.5683 O.3     1  UNL1       -0.3308
     12 O          20.9493   70.4311    0.7233 O.3     1  UNL1       -0.3794
     13 H          19.7901   72.2537    2.3670 H       1  UNL1        0.2106
     14 H          20.0420   70.6985    0.9221 H       1  UNL1        0.2105
     15 N          23.4919   72.8491    3.6852 N.ar    1  UNL1       -0.2551
     16 C          24.6399   73.5199    3.4872 C.ar    1  UNL1        0.3323
     17 N          25.0846   74.4143    4.3897 N.ar    1  UNL1       -0.2743
     18 C          24.3848   74.6458    5.5187 C.ar    1  UNL1        0.2626
     19 C          23.1775   73.9421    5.7427 C.ar    1  UNL1        0.0795
     20 C          22.7518   73.0545    4.8184 C.ar    1  UNL1        0.0869
     21 O          25.2823   73.3222    2.4739 O.2     1  UNL1       -0.2464
     22 O          24.7884   75.4507    6.3376 O.2     1  UNL1       -0.2670
     23 H          25.9125   74.8927    4.2284 H       1  UNL1        0.1734
     24 O          21.7923   70.1908   -3.1510 O.3     1  UNL1       -0.2703
     25 P          20.3145   70.8215   -3.0631 P.3     1  UNL1        0.2208
     26 O          20.4119   72.2946   -2.9672 O.2     1  UNL1       -0.5170
     27 O          19.5622   70.2482   -1.7601 O.3     1  UNL1       -0.4371
     28 O          19.4805   70.4236   -4.3809 O.3     1  UNL1       -0.2865
     29 C          18.8530   71.6180   -4.8507 C.3     1  UNL1        0.2611
     30 C          17.3998   71.3138   -5.2190 C.3     1  UNL1        0.1582
     31 C          17.3736   70.2276   -6.3002 C.3     1  UNL1        0.1625
     32 C          18.2618   70.6749   -7.4660 C.3     1  UNL1        0.1686
     33 C          19.6511   71.0244   -6.9285 C.3     1  UNL1        0.1760
     34 O          16.0335   70.0409   -6.7591 O.3     1  UNL1       -0.3801
     35 O          18.3691   69.6157   -8.4189 O.3     1  UNL1       -0.3794
     36 O          19.5509   72.1007   -5.9968 O.3     1  UNL1       -0.3263
     37 H          16.0635   69.3509   -7.4360 H       1  UNL1        0.2105
     38 H          18.9359   69.9387   -9.1337 H       1  UNL1        0.2105
     39 C          15.6957   71.5894   -3.5002 C.2     1  UNL1        0.2231
     40 C          14.9575   71.1041   -2.2788 C.3     1  UNL1        0.0946
     41 N          16.6821   70.8426   -4.0328 N.am    1  UNL1       -0.2994
     42 O          15.4020   72.6527   -4.0035 O.2     1  UNL1       -0.2751
     43 H          16.9175   69.9917   -3.6301 H       1  UNL1        0.1496
     44 C          20.5559   71.4415   -8.0898 C.3     1  UNL1        0.1693
     45 O          21.0174   72.7774   -7.8786 O.3     1  UNL1       -0.3794
     46 H          21.5821   73.0005   -8.6309 H       1  UNL1        0.2105
@<TRIPOS>BOND
     1    29    30    1
     2    29    28    1
     3    29    36    1
     4    30    31    1
     5    30    41    1
     6    31    32    1
     7    31    34    1
     8    32    33    1
     9    32    35    1
    10    33    44    1
    11    33    36    1
    12    44    45    1
    13    39    40    1
    14    39    41   am
    15    39    42    2
    16    41    43    1
    17    28    25    1
    18    34    37    1
    19    35    38    1
    20    45    46    1
    21    15    16   ar
    22    15    20   ar
    23    15     6    1
    24    16    17   ar
    25    16    21    2
    26    17    18   ar
    27    17    23    1
    28    18    19   ar
    29    18    22    2
    30    19    20   ar
    31     6     7    1
    32     6    11    1
    33     7     8    1
    34     7     9    1
    35     8    13    1
    36     9    10    1
    37     9    12    1
    38    10    11    1
    39    10     5    1
    40    12    14    1
    41     5     4    1
    42     4     1    1
    43     1     2    2
    44     1     3    1
    45     1    24    1
    46    24    25    1
    47    25    26    2
    48    25    27    1
@<TRIPOS>MOLECULE
UD1
 46 48 0 0 0
SMALL
GASTEIGER

@<TRIPOS>ATOM
      1 P          21.8305   71.3551   -0.0530 P.3     1  UNL1        0.2189
      2 O          23.2356   71.1392   -0.4626 O.2     1  UNL1       -0.5170
      3 O          21.3813   70.1872    0.9603 O.3     1  UNL1       -0.4371
      4 O          20.8827   71.3288   -1.3545 O.3     1  UNL1       -0.3112
      5 C          21.3849   72.3199   -2.2523 C.3     1  UNL1        0.1811
      6 C          21.5297   71.0332   -5.6065 C.3     1  UNL1        0.2383
      7 C          22.0672   72.4815   -5.7228 C.3     1  UNL1        0.1895
      8 O          23.0276   72.5874   -6.7743 O.3     1  UNL1       -0.3779
      9 C          22.7357   72.6929   -4.3394 C.3     1  UNL1        0.1713
     10 C          22.0699   71.6364   -3.4366 C.3     1  UNL1        0.1764
     11 O          21.0935   70.9442   -4.2334 O.3     1  UNL1       -0.3308
     12 O          24.1449   72.4704   -4.4255 O.3     1  UNL1       -0.3794
     13 H          23.3210   73.5089   -6.7940 H       1  UNL1        0.2106
     14 H          24.4929   73.1222   -5.0485 H       1  UNL1        0.2105
     15 N          20.4061   70.8212   -6.5197 N.ar    1  UNL1       -0.2551
     16 C          19.1798   71.2542   -6.1791 C.ar    1  UNL1        0.3323
     17 N          18.1287   71.0764   -7.0012 N.ar    1  UNL1       -0.2743
     18 C          18.2895   70.4485   -8.1836 C.ar    1  UNL1        0.2626
     19 C          19.5740   69.9824   -8.5520 C.ar    1  UNL1        0.0795
     20 C          20.6118   70.1787   -7.7108 C.ar    1  UNL1        0.0869
     21 O          19.0188   71.8223   -5.1161 O.2     1  UNL1       -0.2464
     22 O          17.3390   70.2830   -8.9256 O.2     1  UNL1       -0.2670
     23 H          17.2522   71.3994   -6.7416 H       1  UNL1        0.1734
     24 O          21.6978   72.7820    0.6785 O.3     1  UNL1       -0.2703
     25 P          21.8366   72.5093    2.2582 P.3     1  UNL1        0.2208
     26 O          22.8700   71.4765    2.4915 O.2     1  UNL1       -0.5170
     27 O          20.4259   71.9971    2.8411 O.3     1  UNL1       -0.4371
     28 O          22.2611   73.8710    3.0040 O.3     1  UNL1       -0.2865
     29 C          22.8518   73.4948    4.2493 C.3     1  UNL1        0.2611
     30 C          22.1917   74.2851    5.3805 C.3     1  UNL1        0.1582
     31 C          22.3821   75.7840    5.1222 C.3     1  UNL1        0.1625
     32 C          23.8755   76.0605    4.9187 C.3     1  UNL1        0.1686
     33 C          24.4079   75.1382    3.8200 C.3     1  UNL1        0.1760
     34 O          21.9025   76.5279    6.2438 O.3     1  UNL1       -0.3801
     35 O          24.0608   77.4234    4.5319 O.3     1  UNL1       -0.3794
     36 O          24.2493   73.7761    4.2151 O.3     1  UNL1       -0.3263
     37 H          22.0410   77.4628    6.0389 H       1  UNL1        0.2105
     38 H          25.0125   77.5538    4.4139 H       1  UNL1        0.2105
     39 C          19.8776   74.7646    4.7896 C.2     1  UNL1        0.2231
     40 C          18.4056   74.4432    4.8378 C.3     1  UNL1        0.0946
     41 N          20.7617   73.9730    5.4267 N.am    1  UNL1       -0.2994
     42 O          20.2661   75.7365    4.1776 O.2     1  UNL1       -0.2751
     43 H          20.4510   73.1953    5.9167 H       1  UNL1        0.1496
     44 C          25.8918   75.4290    3.5863 C.3     1  UNL1        0.1693
     45 O          26.4332   74.4556    2.6912 O.3     1  UNL1       -0.3794
     46 H          27.3672   74.6745    2.5714 H       1  UNL1        0.2105
@<TRIPOS>BOND
     1    29    30    1
     2    29    28    1
     3    29    36    1
     4    30    31    1
     5    30    41    1
     6    31    32    1
     7    31    34    1
     8    32    33    1
     9    32    35    1
    10    33    44    1
    11    33    36    1
    12    44    45    1
    13    39    40    1
    14    39    41   am
    15    39    42    2
    16    41    43    1
    17    28    25    1
    18    34    37    1
    19    35    38    1
    20    45    46    1
    21    15    16   ar
    22    15    20   ar
    23    15     6    1
    24    16    17   ar
    25    16    21    2
    26    17    18   ar
    27    17    23    1
    28    18    19   ar
    29    18    22    2
    30    19    20   ar
    31     6     7    1
    32     6    11    1
    33     7     8    1
    34     7     9    1
    35     8    13    1
    36     9    10    1
    37     9    12    1
    38    10    11    1
    39    10     5    1
    40    12    14    1
    41     5     4    1
    42     4     1    1
    43     1     2    2
    44     1     3    1
    45     1    24    1
    46    24    25    1
    47    25    26    2
    48    25    27    1
@<TRIPOS>MOLECULE
UD1
 46 48 0 0 0
SMALL
GASTEIGER

@<TRIPOS>ATOM
      1 P          22.6436   71.6876   -2.6874 P.3     1  UNL1        0.2189
      2 O          23.8954   71.5208   -3.4581 O.2     1  UNL1       -0.5170
      3 O          22.3342   73.2565   -2.4991 O.3     1  UNL1       -0.4371
      4 O          22.8078   70.9968   -1.2422 O.3     1  UNL1       -0.3112
      5 C          21.5026   70.9275   -0.6658 C.3     1  UNL1        0.1811
      6 C          23.2044   71.7409    2.3952 C.3     1  UNL1        0.2383
      7 C          22.5000   73.0571    1.9811 C.3     1  UNL1        0.1895
      8 O          22.1417   73.8280    3.1286 O.3     1  UNL1       -0.3779
      9 C          21.2366   72.5341    1.2494 C.3     1  UNL1        0.1713
     10 C          21.6047   71.0917    0.8514 C.3     1  UNL1        0.1764
     11 O          22.9580   70.8603    1.2783 O.3     1  UNL1       -0.3308
     12 O          20.1091   72.5453    2.1277 O.3     1  UNL1       -0.3794
     13 H          21.7101   74.6302    2.8036 H       1  UNL1        0.2106
     14 H          19.9667   73.4652    2.3876 H       1  UNL1        0.2105
     15 N          24.6406   71.9551    2.5765 N.ar    1  UNL1       -0.2551
     16 C          25.4755   70.9015    2.5855 C.ar    1  UNL1        0.3323
     17 N          26.8015   71.0693    2.7464 N.ar    1  UNL1       -0.2743
     18 C          27.3150   72.3050    2.9114 C.ar    1  UNL1        0.2626
     19 C          26.4467   73.4225    2.9100 C.ar    1  UNL1        0.0795
     20 C          25.1214   73.2261    2.7413 C.ar    1  UNL1        0.0869
     21 O          25.0276   69.7808    2.4378 O.2     1  UNL1       -0.2464
     22 O          28.5131   72.4574    3.0618 O.2     1  UNL1       -0.2670
     23 H          27.3896   70.2984    2.7456 H       1  UNL1        0.1734
     24 O          21.4286   70.9913   -3.4798 O.3     1  UNL1       -0.2703
     25 P          21.0082   71.9974   -4.6632 P.3     1  UNL1        0.2208
     26 O          21.7757   71.6699   -5.8849 O.2     1  UNL1       -0.5170
     27 O          21.3275   73.5119   -4.2197 O.3     1  UNL1       -0.4371
     28 O          19.4339   71.8480   -4.9624 O.3     1  UNL1       -0.2865
     29 C          19.1936   70.4668   -5.2379 C.3     1  UNL1        0.2611
     30 C          18.1523   70.3478   -6.3521 C.3     1  UNL1        0.1582
     31 C          16.8608   71.0435   -5.9076 C.3     1  UNL1        0.1625
     32 C          16.4350   70.4675   -4.5530 C.3     1  UNL1        0.1686
     33 C          17.6051   70.5803   -3.5735 C.3     1  UNL1        0.1760
     34 O          15.8347   70.8113   -6.8744 O.3     1  UNL1       -0.3801
     35 O          15.3172   71.2025   -4.0512 O.3     1  UNL1       -0.3794
     36 O          18.7144   69.8247   -4.0584 O.3     1  UNL1       -0.3263
     37 H          15.0427   71.2657   -6.5557 H       1  UNL1        0.2105
     38 H          15.0830   70.8083   -3.1990 H       1  UNL1        0.2105
     39 C          18.8511   70.2575   -8.6841 C.2     1  UNL1        0.2231
     40 C          19.3746   70.9157   -9.9351 C.3     1  UNL1        0.0946
     41 N          18.6604   70.9868   -7.5678 N.am    1  UNL1       -0.2994
     42 O          18.6020   69.0709   -8.6821 O.2     1  UNL1       -0.2751
     43 H          18.8599   71.9364   -7.5691 H       1  UNL1        0.1496
     44 C          17.1795   70.0373   -2.2078 C.3     1  UNL1        0.1693
     45 O          17.2285   68.6092   -2.2263 O.3     1  UNL1       -0.3794
     46 H          16.9536   68.3084   -1.3496 H       1  UNL1        0.2105
@<TRIPOS>BOND
     1    29    30    1
     2    29    28    1
     3    29    36    1
     4    30    31    1
     5    30    41    1
     6    31    32    1
     7    31    34    1
     8    32    33    1
     9    32    35    1
    10    33    44    1
    11    33    36    1
    12    44    45    1
    13    39    40    1
    14    39    41   am
    15    39    42    2
    16    41    43    1
    17    28    25    1
    18    34    37    1
    19    35    38    1
    20    45    46    1
    21    15    16   ar
    22    15    20   ar
    23    15     6    1
    24    16    17   ar
    25    16    21    2
    26    17    18   ar
    27    17    23    1
    28    18    19   ar
    29    18    22    2
    30    19    20   ar
    31     6     7    1
    32     6    11    1
    33     7     8    1
    34     7     9    1
    35     8    13    1
    36     9    10    1
    37     9    12    1
    38    10    11    1
    39    10     5    1
    40    12    14    1
    41     5     4    1
    42     4     1    1
    43     1     2    2
    44     1     3    1
    45     1    24    1
    46    24    25    1
    47    25    26    2
    48    25    27    1
