@<TRIPOS>MOLECULE
*****
 43 45 0 0 0
SMALL
GASTEIGER

@<TRIPOS>ATOM
      1 P          23.3601   71.9766   -3.4338 P.3     1  UNL1        0.2189
      2 O          24.1206   72.9320   -4.4951 O.co2   1  UNL1       -0.4371
      3 O          24.1421   70.7761   -2.9881 O.2     1  UNL1       -0.5170
      4 O          21.9380   71.6662   -4.1402 O.3     1  UNL1       -0.3112
      5 C          21.1887   70.5509   -3.6902 C.3     1  UNL1        0.1811
      6 O          19.2118   71.6272   -4.5314 O.3     1  UNL1       -0.3308
      7 O          17.7744   70.3830   -2.2127 O.3     1  UNL1       -0.3794
      8 O          17.1010   68.7384   -4.2812 O.3     1  UNL1       -0.3779
      9 C          18.8401   69.8562   -3.0014 C.3     1  UNL1        0.1713
     10 C          18.3280   69.4347   -4.3629 C.3     1  UNL1        0.1895
     11 C          19.7749   71.0061   -3.3552 C.3     1  UNL1        0.1764
     12 C          18.1965   70.7691   -5.0770 C.3     1  UNL1        0.2383
     13 H          17.1642   69.6669   -1.9742 H       1  UNL1        0.2105
     14 H          17.2369   67.8967   -3.8188 H       1  UNL1        0.2106
     15 O          16.2010   69.9689   -6.9088 O.2     1  UNL1       -0.2464
     16 O          19.0740   70.3610  -10.4912 O.2     1  UNL1       -0.2670
     17 N          18.3955   70.6538   -6.4943 N.ar    1  UNL1       -0.2551
     18 N          17.6331   70.1649   -8.6911 N.ar    1  UNL1       -0.2743
     19 C          17.3281   70.2428   -7.3262 C.ar    1  UNL1        0.3323
     20 C          19.6380   70.9472   -7.0457 C.ar    1  UNL1        0.0869
     21 C          19.9129   70.8667   -8.3492 C.ar    1  UNL1        0.0795
     22 C          18.8526   70.4448   -9.2871 C.ar    1  UNL1        0.2626
     23 H          16.9049   69.8803   -9.2899 H       1  UNL1        0.1734
     24 O          22.9607   72.9981   -2.2464 O.3     1  UNL1       -0.2703
     25 P          23.0721   72.8544   -0.6402 P.3     1  UNL1        0.2208
     26 O          21.5310   72.6955   -0.1741 O.co2   1  UNL1       -0.4371
     27 O          23.8085   73.9788    0.0286 O.2     1  UNL1       -0.5170
     28 O          23.7217   71.3958   -0.4047 O.3     1  UNL1       -0.2858
     29 O          24.8432   71.5999    1.6731 O.3     1  UNL1       -0.3258
     30 O          20.9597   72.1534    2.9624 O.3     1  UNL1       -0.3794
     31 O          22.7571   74.3916    2.8744 O.3     1  UNL1       -0.3794
     32 O          21.5307   70.2140    0.8907 O.3     1  UNL1       -0.3775
     33 C          22.0576   72.2574    2.0518 C.3     1  UNL1        0.1715
     34 C          23.1794   73.0374    2.7402 C.3     1  UNL1        0.1694
     35 C          22.5300   70.8539    1.6771 C.3     1  UNL1        0.1967
     36 C          24.4827   72.9614    1.9336 C.3     1  UNL1        0.1761
     37 C          23.8588   70.8886    0.9202 C.3     1  UNL1        0.2704
     38 H          20.6546   73.0412    3.2039 H       1  UNL1        0.2105
     39 H          21.9331   74.4255    3.3853 H       1  UNL1        0.2105
     40 H          20.6945   70.1982    1.3810 H       1  UNL1        0.2106
     41 O          25.2291   73.9261    3.9881 O.3     1  UNL1       -0.3794
     42 C          25.6540   73.5985    2.6780 C.3     1  UNL1        0.1693
     43 H          25.9645   74.3322    4.4739 H       1  UNL1        0.2105
@<TRIPOS>UNITY_ATOM_ATTR
2 1
charge -1
26 1
charge -1
@<TRIPOS>BOND
     1    25    28    1
     2    25    24    1
     3    25    26    1
     4    25    27    2
     5     1     4    1
     6     1    24    1
     7     1     2    1
     8     1     3    2
     9     6    11    1
    10     6    12    1
    11    29    36    1
    12    29    37    1
    13     7     9    1
    14     7    13    1
    15     8    10    1
    16     8    14    1
    17    28    37    1
    18     4     5    1
    19    30    33    1
    20    30    38    1
    21    31    34    1
    22    31    39    1
    23    32    35    1
    24    32    40    1
    25    41    42    1
    26    41    43    1
    27    15    19    2
    28    16    22    2
    29    17    12    1
    30    17    19   ar
    31    17    20   ar
    32    18    19   ar
    33    18    22   ar
    34    18    23    1
    35     9    10    1
    36     9    11    1
    37    10    12    1
    38    11     5    1
    39    33    34    1
    40    33    35    1
    41    34    36    1
    42    35    37    1
    43    36    42    1
    44    20    21   ar
    45    21    22   ar
@<TRIPOS>MOLECULE
*****
 43 45 0 0 0
SMALL
GASTEIGER

@<TRIPOS>ATOM
      1 P          21.5336   72.2962   -4.8737 P.3     1  UNL1        0.2189
      2 O          20.7135   73.6782   -5.0609 O.co2   1  UNL1       -0.4371
      3 O          22.6912   72.1143   -5.8109 O.2     1  UNL1       -0.5170
      4 O          20.3898   71.1538   -4.9398 O.3     1  UNL1       -0.3112
      5 C          19.7796   70.7372   -3.7306 C.3     1  UNL1        0.1811
      6 O          18.0278   71.7439   -5.0312 O.3     1  UNL1       -0.3308
      7 O          16.1206   70.5033   -3.0781 O.3     1  UNL1       -0.3794
      8 O          15.9812   68.8039   -5.2063 O.3     1  UNL1       -0.3779
      9 C          17.3514   69.9914   -3.5865 C.3     1  UNL1        0.1713
     10 C          17.1779   69.5316   -5.0190 C.3     1  UNL1        0.1895
     11 C          18.3169   71.1597   -3.7422 C.3     1  UNL1        0.1764
     12 C          17.1857   70.8489   -5.7759 C.3     1  UNL1        0.2383
     13 H          15.4880   69.7754   -2.9699 H       1  UNL1        0.2105
     14 H          16.0251   67.9747   -4.7050 H       1  UNL1        0.2106
     15 O          15.6115   70.3607   -8.0697 O.2     1  UNL1       -0.2464
     16 O          19.3052   70.3460  -10.8260 O.2     1  UNL1       -0.2670
     17 N          17.7099   70.7134   -7.1056 N.ar    1  UNL1       -0.2551
     18 N          17.4520   70.3540   -9.4403 N.ar    1  UNL1       -0.2743
     19 C          16.8338   70.4682   -8.1886 C.ar    1  UNL1        0.3323
     20 C          19.0786   70.8240   -7.3256 C.ar    1  UNL1        0.0869
     21 C          19.6524   70.7112   -8.5252 C.ar    1  UNL1        0.0795
     22 C          18.8077   70.4548   -9.7096 C.ar    1  UNL1        0.2626
     23 H          16.8614   70.1827  -10.2095 H       1  UNL1        0.1734
     24 O          21.9333   72.3201   -3.3076 O.3     1  UNL1       -0.2703
     25 P          23.3732   72.2340   -2.5780 P.3     1  UNL1        0.2208
     26 O          24.0398   73.6721   -2.9022 O.co2   1  UNL1       -0.4371
     27 O          24.2058   71.0570   -2.9967 O.2     1  UNL1       -0.5170
     28 O          23.0357   72.2874   -1.0006 O.3     1  UNL1       -0.2858
     29 O          23.8836   70.6414    0.4787 O.3     1  UNL1       -0.3258
     30 O          20.6523   71.9276    2.7048 O.3     1  UNL1       -0.3794
     31 O          23.3115   72.6408    3.5223 O.3     1  UNL1       -0.3794
     32 O          20.4221   71.6909   -0.1711 O.3     1  UNL1       -0.3775
     33 C          21.7517   72.0703    1.8012 C.3     1  UNL1        0.1715
     34 C          23.0302   71.6556    2.5321 C.3     1  UNL1        0.1694
     35 C          21.5155   71.1791    0.5832 C.3     1  UNL1        0.1967
     36 C          24.2084   71.5261    1.5573 C.3     1  UNL1        0.1761
     37 C          22.7645   71.0795   -0.2944 C.3     1  UNL1        0.2704
     38 H          20.7958   72.4912    3.4802 H       1  UNL1        0.2105
     39 H          22.5595   72.7131    4.1311 H       1  UNL1        0.2105
     40 H          19.6376   71.7489    0.3955 H       1  UNL1        0.2106
     41 O          25.0791   69.8203    2.9860 O.3     1  UNL1       -0.3794
     42 C          25.4539   70.9620    2.2374 C.3     1  UNL1        0.1693
     43 H          25.8619   69.4504    3.4242 H       1  UNL1        0.2105
@<TRIPOS>UNITY_ATOM_ATTR
2 1
charge -1
26 1
charge -1
@<TRIPOS>BOND
     1    25    28    1
     2    25    24    1
     3    25    26    1
     4    25    27    2
     5     1     4    1
     6     1    24    1
     7     1     2    1
     8     1     3    2
     9     6    11    1
    10     6    12    1
    11    29    36    1
    12    29    37    1
    13     7     9    1
    14     7    13    1
    15     8    10    1
    16     8    14    1
    17    28    37    1
    18     4     5    1
    19    30    33    1
    20    30    38    1
    21    31    34    1
    22    31    39    1
    23    32    35    1
    24    32    40    1
    25    41    42    1
    26    41    43    1
    27    15    19    2
    28    16    22    2
    29    17    12    1
    30    17    19   ar
    31    17    20   ar
    32    18    19   ar
    33    18    22   ar
    34    18    23    1
    35     9    10    1
    36     9    11    1
    37    10    12    1
    38    11     5    1
    39    33    34    1
    40    33    35    1
    41    34    36    1
    42    35    37    1
    43    36    42    1
    44    20    21   ar
    45    21    22   ar
@<TRIPOS>MOLECULE
*****
 43 45 0 0 0
SMALL
GASTEIGER

@<TRIPOS>ATOM
      1 P          23.0395   71.5613   -2.5167 P.3     1  UNL1        0.2189
      2 O          23.3876   73.0711   -2.0511 O.co2   1  UNL1       -0.4371
      3 O          24.1656   70.8288   -3.1851 O.2     1  UNL1       -0.5170
      4 O          21.6901   71.7267   -3.3939 O.3     1  UNL1       -0.3112
      5 C          20.8837   70.5829   -3.6160 C.3     1  UNL1        0.1811
      6 O          18.8960   71.5633   -4.5445 O.3     1  UNL1       -0.3308
      7 O          17.4075   70.1716   -2.3449 O.3     1  UNL1       -0.3794
      8 O          16.9540   68.5486   -4.4889 O.3     1  UNL1       -0.3779
      9 C          18.5464   69.7311   -3.0827 C.3     1  UNL1        0.1713
     10 C          18.1390   69.3184   -4.4817 C.3     1  UNL1        0.1895
     11 C          19.4281   70.9439   -3.3530 C.3     1  UNL1        0.1764
     12 C          17.9673   70.6622   -5.1693 C.3     1  UNL1        0.2383
     13 H          16.8295   69.4141   -2.1600 H       1  UNL1        0.2105
     14 H          17.1143   67.7038   -4.0402 H       1  UNL1        0.2106
     15 O          16.0981   69.9000   -7.1450 O.2     1  UNL1       -0.2464
     16 O          19.1757   70.4534  -10.5308 O.2     1  UNL1       -0.2670
     17 N          18.2531   70.5987   -6.5749 N.ar    1  UNL1       -0.2551
     18 N          17.6320   70.1764   -8.8293 N.ar    1  UNL1       -0.2743
     19 C          17.2441   70.2029   -7.4836 C.ar    1  UNL1        0.3323
     20 C          19.5220   70.9271   -7.0396 C.ar    1  UNL1        0.0869
     21 C          19.8762   70.8955   -8.3260 C.ar    1  UNL1        0.0795
     22 C          18.8808   70.4925   -9.3403 C.ar    1  UNL1        0.2626
     23 H          16.9456   69.9032   -9.4805 H       1  UNL1        0.1734
     24 O          22.5053   70.8748   -1.1542 O.3     1  UNL1       -0.2703
     25 P          21.6928   71.4939    0.0986 P.3     1  UNL1        0.2208
     26 O          21.5653   70.2408    1.1139 O.co2   1  UNL1       -0.4371
     27 O          20.3828   72.1277   -0.2703 O.2     1  UNL1       -0.5170
     28 O          22.7412   72.4920    0.8125 O.3     1  UNL1       -0.2858
     29 O          22.9243   73.7233    2.8291 O.3     1  UNL1       -0.3258
     30 O          23.7616   76.7395    0.1361 O.3     1  UNL1       -0.3794
     31 O          25.8752   75.6487    1.7457 O.3     1  UNL1       -0.3794
     32 O          21.7374   74.7667   -0.4888 O.3     1  UNL1       -0.3775
     33 C          23.7709   75.3997    0.6362 C.3     1  UNL1        0.1715
     34 C          24.4934   75.3962    1.9848 C.3     1  UNL1        0.1694
     35 C          22.3307   74.9166    0.7966 C.3     1  UNL1        0.1967
     36 C          24.3126   74.0541    2.7067 C.3     1  UNL1        0.1761
     37 C          22.2597   73.5989    1.5702 C.3     1  UNL1        0.2704
     38 H          24.6731   77.0520    0.0315 H       1  UNL1        0.2105
     39 H          25.9755   76.4987    1.2890 H       1  UNL1        0.2105
     40 H          21.7884   75.6077   -0.9684 H       1  UNL1        0.2106
     41 O          23.9367   74.6720    4.9840 O.3     1  UNL1       -0.3794
     42 C          24.8906   74.0824    4.1199 C.3     1  UNL1        0.1693
     43 H          24.2908   74.6964    5.8871 H       1  UNL1        0.2105
@<TRIPOS>UNITY_ATOM_ATTR
2 1
charge -1
26 1
charge -1
@<TRIPOS>BOND
     1    25    28    1
     2    25    24    1
     3    25    26    1
     4    25    27    2
     5     1     4    1
     6     1    24    1
     7     1     2    1
     8     1     3    2
     9     6    11    1
    10     6    12    1
    11    29    36    1
    12    29    37    1
    13     7     9    1
    14     7    13    1
    15     8    10    1
    16     8    14    1
    17    28    37    1
    18     4     5    1
    19    30    33    1
    20    30    38    1
    21    31    34    1
    22    31    39    1
    23    32    35    1
    24    32    40    1
    25    41    42    1
    26    41    43    1
    27    15    19    2
    28    16    22    2
    29    17    12    1
    30    17    19   ar
    31    17    20   ar
    32    18    19   ar
    33    18    22   ar
    34    18    23    1
    35     9    10    1
    36     9    11    1
    37    10    12    1
    38    11     5    1
    39    33    34    1
    40    33    35    1
    41    34    36    1
    42    35    37    1
    43    36    42    1
    44    20    21   ar
    45    21    22   ar
@<TRIPOS>MOLECULE
*****
 43 45 0 0 0
SMALL
GASTEIGER

@<TRIPOS>ATOM
      1 P          23.6877   72.3586   -3.7532 P.3     1  UNL1        0.2189
      2 O          24.7753   73.5468   -3.9030 O.co2   1  UNL1       -0.4371
      3 O          24.2163   71.0869   -3.1576 O.2     1  UNL1       -0.5170
      4 O          23.0483   72.2284   -5.2338 O.3     1  UNL1       -0.3112
      5 C          21.6374   72.1958   -5.3605 C.3     1  UNL1        0.1811
      6 O          20.4725   70.3094   -6.2870 O.3     1  UNL1       -0.3308
      7 O          20.5815   71.7658   -8.9057 O.3     1  UNL1       -0.3794
      8 O          18.0301   72.2398   -8.0677 O.3     1  UNL1       -0.3779
      9 C          20.4133   72.2885   -7.5890 C.3     1  UNL1        0.1713
     10 C          19.0152   72.0002   -7.0833 C.3     1  UNL1        0.1895
     11 C          21.2715   71.4592   -6.6418 C.3     1  UNL1        0.1764
     12 C          19.1148   70.5332   -6.7009 C.3     1  UNL1        0.2383
     13 H          20.0431   72.2797   -9.5286 H       1  UNL1        0.2105
     14 H          18.0054   73.1866   -8.2768 H       1  UNL1        0.2106
     15 O          16.4030   69.8105   -7.0196 O.2     1  UNL1       -0.2464
     16 O          15.8345   69.2304   -2.4829 O.2     1  UNL1       -0.2670
     17 N          18.2349   70.1881   -5.6201 N.ar    1  UNL1       -0.2551
     18 N          16.1222   69.5221   -4.7604 N.ar    1  UNL1       -0.2743
     19 C          16.8902   69.8409   -5.8876 C.ar    1  UNL1        0.3323
     20 C          18.7076   70.1956   -4.3123 C.ar    1  UNL1        0.0869
     21 C          17.9620   69.8903   -3.2483 C.ar    1  UNL1        0.0795
     22 C          16.5460   69.5164   -3.4409 C.ar    1  UNL1        0.2626
     23 H          15.1821   69.2775   -4.9224 H       1  UNL1        0.1734
     24 O          22.5014   73.0564   -2.9053 O.3     1  UNL1       -0.2703
     25 P          21.6880   72.5505   -1.6032 P.3     1  UNL1        0.2208
     26 O          21.2952   71.0269   -1.9800 O.co2   1  UNL1       -0.4371
     27 O          20.5199   73.4175   -1.2322 O.2     1  UNL1       -0.5170
     28 O          22.8090   72.4093   -0.4506 O.3     1  UNL1       -0.2858
     29 O          24.1078   71.0401    0.9829 O.3     1  UNL1       -0.3258
     30 O          21.1001   72.0828    3.6131 O.3     1  UNL1       -0.3794
     31 O          23.7173   73.2227    3.9279 O.3     1  UNL1       -0.3794
     32 O          20.4707   71.5464    0.8390 O.3     1  UNL1       -0.3775
     33 C          22.0149   72.2866    2.5327 C.3     1  UNL1        0.1715
     34 C          23.4373   72.1193    3.0708 C.3     1  UNL1        0.1694
     35 C          21.7303   71.2606    1.4374 C.3     1  UNL1        0.1967
     36 C          24.4587   72.0585    1.9270 C.3     1  UNL1        0.1761
     37 C          22.8312   71.2480    0.3754 C.3     1  UNL1        0.2704
     38 H          21.2752   72.7314    4.3117 H       1  UNL1        0.2105
     39 H          23.0650   73.2499    4.6454 H       1  UNL1        0.2105
     40 H          19.7822   71.5512    1.5215 H       1  UNL1        0.2106
     41 O          26.3975   70.6931    1.6348 O.3     1  UNL1       -0.3794
     42 C          25.8633   71.7346    2.4311 C.3     1  UNL1        0.1693
     43 H          27.2915   70.4765    1.9440 H       1  UNL1        0.2105
@<TRIPOS>UNITY_ATOM_ATTR
2 1
charge -1
26 1
charge -1
@<TRIPOS>BOND
     1    25    28    1
     2    25    24    1
     3    25    26    1
     4    25    27    2
     5     1     4    1
     6     1    24    1
     7     1     2    1
     8     1     3    2
     9     6    11    1
    10     6    12    1
    11    29    36    1
    12    29    37    1
    13     7     9    1
    14     7    13    1
    15     8    10    1
    16     8    14    1
    17    28    37    1
    18     4     5    1
    19    30    33    1
    20    30    38    1
    21    31    34    1
    22    31    39    1
    23    32    35    1
    24    32    40    1
    25    41    42    1
    26    41    43    1
    27    15    19    2
    28    16    22    2
    29    17    12    1
    30    17    19   ar
    31    17    20   ar
    32    18    19   ar
    33    18    22   ar
    34    18    23    1
    35     9    10    1
    36     9    11    1
    37    10    12    1
    38    11     5    1
    39    33    34    1
    40    33    35    1
    41    34    36    1
    42    35    37    1
    43    36    42    1
    44    20    21   ar
    45    21    22   ar
@<TRIPOS>MOLECULE
*****
 43 45 0 0 0
SMALL
GASTEIGER

@<TRIPOS>ATOM
      1 P          22.8334   71.4391   -2.7461 P.3     1  UNL1        0.2189
      2 O          22.8005   73.0423   -2.5312 O.co2   1  UNL1       -0.4371
      3 O          24.2020   70.8523   -2.9304 O.2     1  UNL1       -0.5170
      4 O          21.7923   71.1884   -3.9591 O.3     1  UNL1       -0.3112
      5 C          21.6389   72.2008   -4.9385 C.3     1  UNL1        0.1811
      6 O          20.5090   70.3992   -6.0574 O.3     1  UNL1       -0.3308
      7 O          20.8351   72.0035   -8.5695 O.3     1  UNL1       -0.3794
      8 O          18.2390   72.4865   -7.8885 O.3     1  UNL1       -0.3779
      9 C          20.5817   72.4520   -7.2391 C.3     1  UNL1        0.1713
     10 C          19.1454   72.1669   -6.8526 C.3     1  UNL1        0.1895
     11 C          21.3531   71.5491   -6.2846 C.3     1  UNL1        0.1764
     12 C          19.1894   70.6782   -6.5528 C.3     1  UNL1        0.2383
     13 H          20.3531   72.5653   -9.1972 H       1  UNL1        0.2105
     14 H          18.2474   73.4442   -8.0417 H       1  UNL1        0.2106
     15 O          16.5323   69.9071   -7.1216 O.2     1  UNL1       -0.2464
     16 O          15.5857   69.2135   -2.6647 O.2     1  UNL1       -0.2670
     17 N          18.2271   70.2907   -5.5602 N.ar    1  UNL1       -0.2551
     18 N          16.0632   69.5622   -4.9019 N.ar    1  UNL1       -0.2743
     19 C          16.9187   69.9221   -5.9510 C.ar    1  UNL1        0.3323
     20 C          18.5843   70.2786   -4.2163 C.ar    1  UNL1        0.0869
     21 C          17.7563   69.9341   -3.2279 C.ar    1  UNL1        0.0795
     22 C          16.3710   69.5355   -3.5509 C.ar    1  UNL1        0.2626
     23 H          15.1465   69.3020   -5.1503 H       1  UNL1        0.1734
     24 O          22.0309   70.8831   -1.4578 O.3     1  UNL1       -0.2703
     25 P          22.2687   71.1183    0.1237 P.3     1  UNL1        0.2208
     26 O          23.8539   71.4274    0.2186 O.co2   1  UNL1       -0.4371
     27 O          21.8061   69.9835    0.9910 O.2     1  UNL1       -0.5170
     28 O          21.5580   72.5330    0.4378 O.3     1  UNL1       -0.2858
     29 O          21.3072   72.6257    2.7926 O.3     1  UNL1       -0.3258
     30 O          19.5639   76.2351    1.8007 O.3     1  UNL1       -0.3794
     31 O          22.1499   76.2051    3.0498 O.3     1  UNL1       -0.3794
     32 O          19.1365   73.9156    0.1224 O.3     1  UNL1       -0.3775
     33 C          20.4983   75.1601    1.6710 C.3     1  UNL1        0.1715
     34 C          21.3013   75.0633    2.9697 C.3     1  UNL1        0.1694
     35 C          19.7340   73.8629    1.4134 C.3     1  UNL1        0.1967
     36 C          22.1338   73.7748    3.0115 C.3     1  UNL1        0.1761
     37 C          20.6445   72.6389    1.5266 C.3     1  UNL1        0.2704
     38 H          20.0428   77.0619    1.9639 H       1  UNL1        0.2105
     39 H          21.6118   77.0119    3.0219 H       1  UNL1        0.2105
     40 H          18.5623   74.6946    0.0636 H       1  UNL1        0.2106
     41 O          22.3716   72.3595    4.9218 O.3     1  UNL1       -0.3794
     42 C          22.8194   73.5804    4.3621 C.3     1  UNL1        0.1693
     43 H          22.7999   72.2224    5.7817 H       1  UNL1        0.2105
@<TRIPOS>UNITY_ATOM_ATTR
2 1
charge -1
26 1
charge -1
@<TRIPOS>BOND
     1    25    28    1
     2    25    24    1
     3    25    26    1
     4    25    27    2
     5     1     4    1
     6     1    24    1
     7     1     2    1
     8     1     3    2
     9     6    11    1
    10     6    12    1
    11    29    36    1
    12    29    37    1
    13     7     9    1
    14     7    13    1
    15     8    10    1
    16     8    14    1
    17    28    37    1
    18     4     5    1
    19    30    33    1
    20    30    38    1
    21    31    34    1
    22    31    39    1
    23    32    35    1
    24    32    40    1
    25    41    42    1
    26    41    43    1
    27    15    19    2
    28    16    22    2
    29    17    12    1
    30    17    19   ar
    31    17    20   ar
    32    18    19   ar
    33    18    22   ar
    34    18    23    1
    35     9    10    1
    36     9    11    1
    37    10    12    1
    38    11     5    1
    39    33    34    1
    40    33    35    1
    41    34    36    1
    42    35    37    1
    43    36    42    1
    44    20    21   ar
    45    21    22   ar
@<TRIPOS>MOLECULE
*****
 43 45 0 0 0
SMALL
GASTEIGER

@<TRIPOS>ATOM
      1 P          20.7197   70.8139   -3.1893 P.3     1  UNL1        0.2189
      2 O          21.5478   72.0154   -3.8881 O.co2   1  UNL1       -0.4371
      3 O          20.6896   69.5300   -3.9652 O.2     1  UNL1       -0.5170
      4 O          19.2781   71.4731   -2.8652 O.3     1  UNL1       -0.3112
      5 C          18.6758   72.2982   -3.8472 C.3     1  UNL1        0.1811
      6 O          16.8889   71.9830   -5.4224 O.3     1  UNL1       -0.3308
      7 O          15.5753   70.3059   -3.3124 O.3     1  UNL1       -0.3794
      8 O          16.6469   68.4323   -4.9791 O.3     1  UNL1       -0.3779
      9 C          16.9599   70.4320   -3.6321 C.3     1  UNL1        0.1713
     10 C          17.2711   69.6986   -4.9201 C.3     1  UNL1        0.1895
     11 C          17.2215   71.8819   -4.0205 C.3     1  UNL1        0.1764
     12 C          16.7391   70.6619   -5.9676 C.3     1  UNL1        0.2383
     13 H          15.3840   69.3882   -3.0608 H       1  UNL1        0.2105
     14 H          17.0193   67.8559   -4.2936 H       1  UNL1        0.2106
     15 O          15.5450   70.7230   -8.5266 O.2     1  UNL1       -0.2464
     16 O          19.6235   70.3486  -10.6401 O.2     1  UNL1       -0.2670
     17 N          17.4652   70.5825   -7.2037 N.ar    1  UNL1       -0.2551
     18 N          17.5767   70.5367   -9.5768 N.ar    1  UNL1       -0.2743
     19 C          16.7701   70.6210   -8.4348 C.ar    1  UNL1        0.3323
     20 C          18.8511   70.4683   -7.1872 C.ar    1  UNL1        0.0869
     21 C          19.6056   70.3877   -8.2851 C.ar    1  UNL1        0.0795
     22 C          18.9573   70.4208   -9.6120 C.ar    1  UNL1        0.2626
     23 H          17.1142   70.5611  -10.4459 H       1  UNL1        0.1734
     24 O          21.4044   70.7018   -1.7293 O.3     1  UNL1       -0.2703
     25 P          21.0356   71.4148   -0.3263 P.3     1  UNL1        0.2208
     26 O          21.5894   70.3699    0.7778 O.co2   1  UNL1       -0.4371
     27 O          19.5828   71.7625   -0.1759 O.2     1  UNL1       -0.5170
     28 O          22.0383   72.6760   -0.2329 O.3     1  UNL1       -0.2858
     29 O          23.9266   72.7025   -1.6648 O.3     1  UNL1       -0.3258
     30 O          25.1797   75.4709    1.1310 O.3     1  UNL1       -0.3794
     31 O          24.3952   76.3545   -1.4866 O.3     1  UNL1       -0.3794
     32 O          23.7053   73.1285    1.9787 O.3     1  UNL1       -0.3775
     33 C          24.2290   74.7857    0.3112 C.3     1  UNL1        0.1715
     34 C          24.6241   74.9883   -1.1529 C.3     1  UNL1        0.1694
     35 C          24.2387   73.3010    0.6702 C.3     1  UNL1        0.1967
     36 C          23.8141   74.0695   -2.0775 C.3     1  UNL1        0.1761
     37 C          23.4446   72.4706   -0.3397 C.3     1  UNL1        0.2704
     38 H          25.1783   76.4143    0.9084 H       1  UNL1        0.2105
     39 H          24.9120   76.9240   -0.8952 H       1  UNL1        0.2105
     40 H          24.2168   73.6589    2.6087 H       1  UNL1        0.2106
     41 O          24.3935   72.8223   -4.0314 O.3     1  UNL1       -0.3794
     42 C          24.3005   74.1404   -3.5233 C.3     1  UNL1        0.1693
     43 H          24.7016   72.8518   -4.9511 H       1  UNL1        0.2105
@<TRIPOS>UNITY_ATOM_ATTR
2 1
charge -1
26 1
charge -1
@<TRIPOS>BOND
     1    25    28    1
     2    25    24    1
     3    25    26    1
     4    25    27    2
     5     1     4    1
     6     1    24    1
     7     1     2    1
     8     1     3    2
     9     6    11    1
    10     6    12    1
    11    29    36    1
    12    29    37    1
    13     7     9    1
    14     7    13    1
    15     8    10    1
    16     8    14    1
    17    28    37    1
    18     4     5    1
    19    30    33    1
    20    30    38    1
    21    31    34    1
    22    31    39    1
    23    32    35    1
    24    32    40    1
    25    41    42    1
    26    41    43    1
    27    15    19    2
    28    16    22    2
    29    17    12    1
    30    17    19   ar
    31    17    20   ar
    32    18    19   ar
    33    18    22   ar
    34    18    23    1
    35     9    10    1
    36     9    11    1
    37    10    12    1
    38    11     5    1
    39    33    34    1
    40    33    35    1
    41    34    36    1
    42    35    37    1
    43    36    42    1
    44    20    21   ar
    45    21    22   ar
@<TRIPOS>MOLECULE
*****
 43 45 0 0 0
SMALL
GASTEIGER

@<TRIPOS>ATOM
      1 P          21.7819   72.4099   -5.5449 P.3     1  UNL1        0.2189
      2 O          21.0695   73.8354   -5.2660 O.co2   1  UNL1       -0.4371
      3 O          23.0703   72.4842   -6.3104 O.2     1  UNL1       -0.5170
      4 O          20.6137   71.5174   -6.2205 O.3     1  UNL1       -0.3112
      5 C          20.0996   71.9172   -7.4790 C.3     1  UNL1        0.1811
      6 O          18.8127   69.9250   -7.0939 O.3     1  UNL1       -0.3308
      7 O          18.0737   70.0661   -9.9964 O.3     1  UNL1       -0.3794
      8 O          15.8596   71.0804   -8.7694 O.3     1  UNL1       -0.3779
      9 C          18.2726   71.1269   -9.0635 C.3     1  UNL1        0.1713
     10 C          17.1011   71.2132   -8.1076 C.3     1  UNL1        0.1895
     11 C          19.4123   70.7273   -8.1346 C.3     1  UNL1        0.1764
     12 C          17.3836   70.0613   -7.1582 C.3     1  UNL1        0.2383
     13 H          17.3506   70.2985  -10.6007 H       1  UNL1        0.2105
     14 H          15.7261   71.8370   -9.3614 H       1  UNL1        0.2106
     15 O          16.3992   68.0542   -5.4318 O.2     1  UNL1       -0.2464
     16 O          15.4695   71.1109   -2.1100 O.2     1  UNL1       -0.2670
     17 N          16.8785   70.3045   -5.8364 N.ar    1  UNL1       -0.2551
     18 N          15.9372   69.5778   -3.7791 N.ar    1  UNL1       -0.2743
     19 C          16.4066   69.2268   -5.0513 C.ar    1  UNL1        0.3323
     20 C          16.8547   71.5998   -5.3311 C.ar    1  UNL1        0.0869
     21 C          16.4026   71.9181   -4.1163 C.ar    1  UNL1        0.0795
     22 C          15.8919   70.8505   -3.2324 C.ar    1  UNL1        0.2626
     23 H          15.6032   68.8434   -3.2145 H       1  UNL1        0.1734
     24 O          21.9147   71.7741   -4.0646 O.3     1  UNL1       -0.2703
     25 P          23.0944   71.8821   -2.9648 P.3     1  UNL1        0.2208
     26 O          23.6264   73.4001   -3.1392 O.co2   1  UNL1       -0.4371
     27 O          24.1599   70.8331   -3.1003 O.2     1  UNL1       -0.5170
     28 O          22.3295   71.8790   -1.5436 O.3     1  UNL1       -0.2858
     29 O          24.0316   72.4197    0.0144 O.3     1  UNL1       -0.3258
     30 O          20.8192   72.1924    2.5990 O.3     1  UNL1       -0.3794
     31 O          21.9411   74.7561    1.9534 O.3     1  UNL1       -0.3794
     32 O          21.0398   70.3208    0.4016 O.3     1  UNL1       -0.3775
     33 C          21.4805   72.4840    1.3648 C.3     1  UNL1        0.1715
     34 C          22.5737   73.5186    1.6394 C.3     1  UNL1        0.1694
     35 C          22.0858   71.1974    0.8066 C.3     1  UNL1        0.1967
     36 C          23.4976   73.6837    0.4252 C.3     1  UNL1        0.1761
     37 C          23.0263   71.4783   -0.3667 C.3     1  UNL1        0.2704
     38 H          20.4323   73.0051    2.9585 H       1  UNL1        0.2105
     39 H          21.3603   74.6379    2.7215 H       1  UNL1        0.2105
     40 H          20.4516   70.1506    1.1532 H       1  UNL1        0.2106
     41 O          24.8548   75.4908   -0.3504 O.3     1  UNL1       -0.3794
     42 C          24.6866   74.5922    0.7306 C.3     1  UNL1        0.1693
     43 H          25.6079   76.0755   -0.1698 H       1  UNL1        0.2105
@<TRIPOS>UNITY_ATOM_ATTR
2 1
charge -1
26 1
charge -1
@<TRIPOS>BOND
     1    25    28    1
     2    25    24    1
     3    25    26    1
     4    25    27    2
     5     1     4    1
     6     1    24    1
     7     1     2    1
     8     1     3    2
     9     6    11    1
    10     6    12    1
    11    29    36    1
    12    29    37    1
    13     7     9    1
    14     7    13    1
    15     8    10    1
    16     8    14    1
    17    28    37    1
    18     4     5    1
    19    30    33    1
    20    30    38    1
    21    31    34    1
    22    31    39    1
    23    32    35    1
    24    32    40    1
    25    41    42    1
    26    41    43    1
    27    15    19    2
    28    16    22    2
    29    17    12    1
    30    17    19   ar
    31    17    20   ar
    32    18    19   ar
    33    18    22   ar
    34    18    23    1
    35     9    10    1
    36     9    11    1
    37    10    12    1
    38    11     5    1
    39    33    34    1
    40    33    35    1
    41    34    36    1
    42    35    37    1
    43    36    42    1
    44    20    21   ar
    45    21    22   ar
@<TRIPOS>MOLECULE
*****
 43 45 0 0 0
SMALL
GASTEIGER

@<TRIPOS>ATOM
      1 P          23.3112   73.5755   -4.0342 P.3     1  UNL1        0.2189
      2 O          22.5988   75.0141   -3.8326 O.co2   1  UNL1       -0.4371
      3 O          24.8103   73.5968   -3.9747 O.2     1  UNL1       -0.5170
      4 O          22.6705   73.0142   -5.4098 O.3     1  UNL1       -0.3112
      5 C          21.3425   72.5205   -5.3851 C.3     1  UNL1        0.1811
      6 O          20.4084   70.4544   -6.1802 O.3     1  UNL1       -0.3308
      7 O          20.5349   71.6680   -8.9192 O.3     1  UNL1       -0.3794
      8 O          17.9073   71.9708   -8.2557 O.3     1  UNL1       -0.3779
      9 C          20.2449   72.2909   -7.6689 C.3     1  UNL1        0.1713
     10 C          18.8520   71.9178   -7.2061 C.3     1  UNL1        0.1895
     11 C          21.1189   71.6379   -6.6054 C.3     1  UNL1        0.1764
     12 C          19.0619   70.5084   -6.6792 C.3     1  UNL1        0.2383
     13 H          19.9889   72.0687   -9.6142 H       1  UNL1        0.2105
     14 H          17.8090   72.8877   -8.5564 H       1  UNL1        0.2106
     15 O          16.3942   69.6606   -7.0564 O.2     1  UNL1       -0.2464
     16 O          15.6796   69.2826   -2.5190 O.2     1  UNL1       -0.2670
     17 N          18.1564   70.1814   -5.6140 N.ar    1  UNL1       -0.2551
     18 N          16.0406   69.4729   -4.7969 N.ar    1  UNL1       -0.2743
     19 C          16.8372   69.7668   -5.9109 C.ar    1  UNL1        0.3323
     20 C          18.5792   70.2729   -4.2924 C.ar    1  UNL1        0.0869
     21 C          17.8069   69.9902   -3.2413 C.ar    1  UNL1        0.0795
     22 C          16.4147   69.5497   -3.4646 C.ar    1  UNL1        0.2626
     23 H          15.1176   69.1824   -4.9794 H       1  UNL1        0.1734
     24 O          22.6060   72.6593   -2.9045 O.3     1  UNL1       -0.2703
     25 P          22.7998   71.0987   -2.5303 P.3     1  UNL1        0.2208
     26 O          24.3212   70.7935   -2.9883 O.co2   1  UNL1       -0.4371
     27 O          21.7747   70.1876   -3.1410 O.2     1  UNL1       -0.5170
     28 O          22.8457   71.0680   -0.9173 O.3     1  UNL1       -0.2858
     29 O          22.6293   73.2450   -0.0060 O.3     1  UNL1       -0.3258
     30 O          23.6054   71.1830    3.4359 O.3     1  UNL1       -0.3794
     31 O          20.9183   72.1246    3.0610 O.3     1  UNL1       -0.3794
     32 O          24.8792   70.4939    0.9294 O.3     1  UNL1       -0.3775
     33 C          22.9972   71.3652    2.1543 C.3     1  UNL1        0.1715
     34 C          22.0163   72.5353    2.2511 C.3     1  UNL1        0.1694
     35 C          24.0849   71.6593    1.1229 C.3     1  UNL1        0.1967
     36 C          21.5249   72.9626    0.8614 C.3     1  UNL1        0.1761
     37 C          23.4905   72.1229   -0.2082 C.3     1  UNL1        0.2704
     38 H          22.9202   70.9954    4.0953 H       1  UNL1        0.2105
     39 H          21.2422   71.8570    3.9354 H       1  UNL1        0.2105
     40 H          25.2500   70.2107    1.7792 H       1  UNL1        0.2106
     41 O          19.4138   73.8933    1.4826 O.3     1  UNL1       -0.3794
     42 C          20.6698   74.2265    0.9208 C.3     1  UNL1        0.1693
     43 H          18.8589   74.6882    1.5269 H       1  UNL1        0.2105
@<TRIPOS>UNITY_ATOM_ATTR
2 1
charge -1
26 1
charge -1
@<TRIPOS>BOND
     1    25    28    1
     2    25    24    1
     3    25    26    1
     4    25    27    2
     5     1     4    1
     6     1    24    1
     7     1     2    1
     8     1     3    2
     9     6    11    1
    10     6    12    1
    11    29    36    1
    12    29    37    1
    13     7     9    1
    14     7    13    1
    15     8    10    1
    16     8    14    1
    17    28    37    1
    18     4     5    1
    19    30    33    1
    20    30    38    1
    21    31    34    1
    22    31    39    1
    23    32    35    1
    24    32    40    1
    25    41    42    1
    26    41    43    1
    27    15    19    2
    28    16    22    2
    29    17    12    1
    30    17    19   ar
    31    17    20   ar
    32    18    19   ar
    33    18    22   ar
    34    18    23    1
    35     9    10    1
    36     9    11    1
    37    10    12    1
    38    11     5    1
    39    33    34    1
    40    33    35    1
    41    34    36    1
    42    35    37    1
    43    36    42    1
    44    20    21   ar
    45    21    22   ar
@<TRIPOS>MOLECULE
*****
 43 45 0 0 0
SMALL
GASTEIGER

@<TRIPOS>ATOM
      1 P          22.3382   72.6746   -4.0821 P.3     1  UNL1        0.2189
      2 O          21.8002   71.1568   -3.9256 O.co2   1  UNL1       -0.4371
      3 O          23.6857   72.8058   -4.7290 O.2     1  UNL1       -0.5170
      4 O          22.2126   73.2869   -2.5897 O.3     1  UNL1       -0.3112
      5 C          21.2906   74.3394   -2.3661 C.3     1  UNL1        0.1811
      6 O          20.6588   72.6251   -0.8054 O.3     1  UNL1       -0.3308
      7 O          18.6213   74.5713    0.2203 O.3     1  UNL1       -0.3794
      8 O          20.6132   74.7646    2.0727 O.3     1  UNL1       -0.3779
      9 C          19.9407   74.8174   -0.2632 C.3     1  UNL1        0.1713
     10 C          20.9664   74.3773    0.7605 C.3     1  UNL1        0.1895
     11 C          20.2062   73.8546   -1.4137 C.3     1  UNL1        0.1764
     12 C          20.9682   72.8692    0.5764 C.3     1  UNL1        0.2383
     13 H          18.4287   75.1748    0.9556 H       1  UNL1        0.2105
     14 H          20.6265   75.7321    2.1391 H       1  UNL1        0.2106
     15 O          21.4005   70.1045    0.9605 O.2     1  UNL1       -0.2464
     16 O          25.9003   70.7297    1.7367 O.2     1  UNL1       -0.2670
     17 N          22.2428   72.2820    0.8797 N.ar    1  UNL1       -0.2551
     18 N          23.6407   70.4180    1.3465 N.ar    1  UNL1       -0.2743
     19 C          22.3520   70.8827    1.0545 C.ar    1  UNL1        0.3323
     20 C          23.3674   73.0910    1.0004 C.ar    1  UNL1        0.0869
     21 C          24.5891   72.6324    1.2805 C.ar    1  UNL1        0.0795
     22 C          24.7894   71.1822    1.4780 C.ar    1  UNL1        0.2626
     23 H          23.7409   69.4465    1.4728 H       1  UNL1        0.1734
     24 O          21.1360   73.4062   -4.8774 O.3     1  UNL1       -0.2703
     25 P          20.7798   73.4531   -6.4534 P.3     1  UNL1        0.2208
     26 O          21.9827   72.6095   -7.1309 O.co2   1  UNL1       -0.4371
     27 O          20.6084   74.8390   -7.0045 O.2     1  UNL1       -0.5170
     28 O          19.4814   72.5068   -6.6071 O.3     1  UNL1       -0.2858
     29 O          18.8739   70.3521   -5.8294 O.3     1  UNL1       -0.3258
     30 O          17.6097   70.0206   -9.7464 O.3     1  UNL1       -0.3794
     31 O          15.6670   70.2639   -7.6452 O.3     1  UNL1       -0.3794
     32 O          20.0605   71.4345   -9.1349 O.3     1  UNL1       -0.3775
     33 C          17.8554   70.6946   -8.5092 C.3     1  UNL1        0.1715
     34 C          17.0473   69.9961   -7.4138 C.3     1  UNL1        0.1694
     35 C          19.3493   70.6347   -8.1962 C.3     1  UNL1        0.1967
     36 C          17.4610   70.4890   -6.0206 C.3     1  UNL1        0.1761
     37 C          19.6467   71.1006   -6.7698 C.3     1  UNL1        0.2704
     38 H          16.6629   70.0554   -9.9512 H       1  UNL1        0.2105
     39 H          15.4188   69.9482   -8.5284 H       1  UNL1        0.2105
     40 H          19.8640   71.1294  -10.0339 H       1  UNL1        0.2106
     41 O          16.0530   68.6316   -5.4947 O.3     1  UNL1       -0.3794
     42 C          16.7812   69.6944   -4.9077 C.3     1  UNL1        0.1693
     43 H          15.6152   68.1170   -4.7981 H       1  UNL1        0.2105
@<TRIPOS>UNITY_ATOM_ATTR
2 1
charge -1
26 1
charge -1
@<TRIPOS>BOND
     1    25    28    1
     2    25    24    1
     3    25    26    1
     4    25    27    2
     5     1     4    1
     6     1    24    1
     7     1     2    1
     8     1     3    2
     9     6    11    1
    10     6    12    1
    11    29    36    1
    12    29    37    1
    13     7     9    1
    14     7    13    1
    15     8    10    1
    16     8    14    1
    17    28    37    1
    18     4     5    1
    19    30    33    1
    20    30    38    1
    21    31    34    1
    22    31    39    1
    23    32    35    1
    24    32    40    1
    25    41    42    1
    26    41    43    1
    27    15    19    2
    28    16    22    2
    29    17    12    1
    30    17    19   ar
    31    17    20   ar
    32    18    19   ar
    33    18    22   ar
    34    18    23    1
    35     9    10    1
    36     9    11    1
    37    10    12    1
    38    11     5    1
    39    33    34    1
    40    33    35    1
    41    34    36    1
    42    35    37    1
    43    36    42    1
    44    20    21   ar
    45    21    22   ar
@<TRIPOS>MOLECULE
*****
 43 45 0 0 0
SMALL
GASTEIGER

@<TRIPOS>ATOM
      1 P          23.0601   71.8837   -2.3279 P.3     1  UNL1        0.2189
      2 O          23.5732   73.2270   -1.5865 O.co2   1  UNL1       -0.4371
      3 O          23.9786   71.3559   -3.3905 O.2     1  UNL1       -0.5170
      4 O          21.5630   72.2568   -2.8152 O.3     1  UNL1       -0.3112
      5 C          20.8560   71.3180   -3.6068 C.3     1  UNL1        0.1811
      6 O          18.7387   71.9154   -4.5731 O.3     1  UNL1       -0.3308
      7 O          17.4881   70.4860   -2.2528 O.3     1  UNL1       -0.3794
      8 O          17.2747   68.6560   -4.2634 O.3     1  UNL1       -0.3779
      9 C          18.6768   70.1673   -2.9744 C.3     1  UNL1        0.1713
     10 C          18.3298   69.5935   -4.3323 C.3     1  UNL1        0.1895
     11 C          19.3639   71.4749   -3.3478 C.3     1  UNL1        0.1764
     12 C          17.9538   70.8404   -5.1145 C.3     1  UNL1        0.2383
     13 H          17.0320   69.6664   -2.0032 H       1  UNL1        0.2105
     14 H          17.5630   67.8812   -3.7561 H       1  UNL1        0.2106
     15 O          16.0658   70.0560   -7.0634 O.2     1  UNL1       -0.2464
     16 O          19.1614   70.3905  -10.4613 O.2     1  UNL1       -0.2670
     17 N          18.2392   70.7146   -6.5160 N.ar    1  UNL1       -0.2551
     18 N          17.6087   70.2234   -8.7537 N.ar    1  UNL1       -0.2743
     19 C          17.2203   70.3128   -7.4109 C.ar    1  UNL1        0.3323
     20 C          19.5174   70.9886   -6.9902 C.ar    1  UNL1        0.0869
     21 C          19.8720   70.8972   -8.2736 C.ar    1  UNL1        0.0795
     22 C          18.8666   70.4839   -9.2738 C.ar    1  UNL1        0.2626
     23 H          16.9155   69.9449   -9.3954 H       1  UNL1        0.1734
     24 O          22.7992   70.8671   -1.0985 O.3     1  UNL1       -0.2703
     25 P          22.2690   71.1336    0.4051 P.3     1  UNL1        0.2208
     26 O          23.6321   71.3795    1.2411 O.co2   1  UNL1       -0.4371
     27 O          21.3954   70.0419    0.9521 O.2     1  UNL1       -0.5170
     28 O          21.5642   72.5841    0.3387 O.3     1  UNL1       -0.2858
     29 O          22.0008   74.8680    0.7967 O.3     1  UNL1       -0.3258
     30 O          18.6427   74.3544    3.1442 O.3     1  UNL1       -0.3794
     31 O          18.4568   75.8792    0.7176 O.3     1  UNL1       -0.3794
     32 O          20.6095   72.2389    2.9549 O.3     1  UNL1       -0.3775
     33 C          19.4808   74.1427    2.0048 C.3     1  UNL1        0.1715
     34 C          19.6929   75.4886    1.3088 C.3     1  UNL1        0.1694
     35 C          20.8150   73.5606    2.4677 C.3     1  UNL1        0.1967
     36 C          20.7898   75.3927    0.2398 C.3     1  UNL1        0.1761
     37 C          21.8502   73.5556    1.3415 C.3     1  UNL1        0.2704
     38 H          17.7937   74.7235    2.8571 H       1  UNL1        0.2105
     39 H          17.7726   75.9356    1.4031 H       1  UNL1        0.2105
     40 H          19.9524   72.2556    3.6675 H       1  UNL1        0.2106
     41 O          20.0868   77.1316   -1.2403 O.3     1  UNL1       -0.3794
     42 C          21.1278   76.7571   -0.3569 C.3     1  UNL1        0.1693
     43 H          20.2882   77.9984   -1.6274 H       1  UNL1        0.2105
@<TRIPOS>UNITY_ATOM_ATTR
2 1
charge -1
26 1
charge -1
@<TRIPOS>BOND
     1    25    28    1
     2    25    24    1
     3    25    26    1
     4    25    27    2
     5     1     4    1
     6     1    24    1
     7     1     2    1
     8     1     3    2
     9     6    11    1
    10     6    12    1
    11    29    36    1
    12    29    37    1
    13     7     9    1
    14     7    13    1
    15     8    10    1
    16     8    14    1
    17    28    37    1
    18     4     5    1
    19    30    33    1
    20    30    38    1
    21    31    34    1
    22    31    39    1
    23    32    35    1
    24    32    40    1
    25    41    42    1
    26    41    43    1
    27    15    19    2
    28    16    22    2
    29    17    12    1
    30    17    19   ar
    31    17    20   ar
    32    18    19   ar
    33    18    22   ar
    34    18    23    1
    35     9    10    1
    36     9    11    1
    37    10    12    1
    38    11     5    1
    39    33    34    1
    40    33    35    1
    41    34    36    1
    42    35    37    1
    43    36    42    1
    44    20    21   ar
    45    21    22   ar
@<TRIPOS>MOLECULE
*****
 43 45 0 0 0
SMALL
GASTEIGER

@<TRIPOS>ATOM
      1 P          22.6170   71.1166    0.1814 P.3     1  UNL1        0.2189
      2 O          21.5765   70.0796    0.8590 O.co2   1  UNL1       -0.4371
      3 O          24.0585   70.8852    0.5276 O.2     1  UNL1       -0.5170
      4 O          22.0254   72.5711    0.5717 O.3     1  UNL1       -0.3112
      5 C          22.4923   73.1957    1.7548 C.3     1  UNL1        0.1811
      6 O          22.4296   72.5284    4.0623 O.3     1  UNL1       -0.3308
      7 O          19.5294   73.2876    4.0089 O.3     1  UNL1       -0.3794
      8 O          20.6842   75.4375    5.2258 O.3     1  UNL1       -0.3779
      9 C          20.6342   73.8984    3.3444 C.3     1  UNL1        0.1713
     10 C          21.4747   74.6806    4.3319 C.3     1  UNL1        0.1895
     11 C          21.5926   72.7942    2.9156 C.3     1  UNL1        0.1764
     12 C          22.2510   73.5764    5.0291 C.3     1  UNL1        0.2383
     13 H          18.9033   73.9732    4.2918 H       1  UNL1        0.2105
     14 H          20.2103   76.1266    4.7347 H       1  UNL1        0.2106
     15 O          22.9455   73.9468    7.7417 O.2     1  UNL1       -0.2464
     16 O          27.2253   75.2678    6.6555 O.2     1  UNL1       -0.2670
     17 N          23.5400   74.0161    5.4837 N.ar    1  UNL1       -0.2551
     18 N          25.0760   74.6041    7.1987 N.ar    1  UNL1       -0.2743
     19 C          23.7856   74.1711    6.8679 C.ar    1  UNL1        0.3323
     20 C          24.5444   74.2882    4.5612 C.ar    1  UNL1        0.0869
     21 C          25.7693   74.7015    4.8929 C.ar    1  UNL1        0.0795
     22 C          26.1079   74.8888    6.3184 C.ar    1  UNL1        0.2626
     23 H          25.2699   74.7195    8.1573 H       1  UNL1        0.1734
     24 O          22.2758   70.9965   -1.3941 O.3     1  UNL1       -0.2703
     25 P          22.9261   71.7291   -2.6799 P.3     1  UNL1        0.2208
     26 O          24.2175   70.8138   -3.0148 O.co2   1  UNL1       -0.4371
     27 O          23.2355   73.1829   -2.4687 O.2     1  UNL1       -0.5170
     28 O          21.8933   71.4332   -3.8844 O.3     1  UNL1       -0.2858
     29 O          20.6891   73.3188   -4.6660 O.3     1  UNL1       -0.3258
     30 O          18.4319   70.3284   -6.4020 O.3     1  UNL1       -0.3794
     31 O          20.1387   71.9518   -8.0450 O.3     1  UNL1       -0.3794
     32 O          19.5060   69.9653   -3.7386 O.3     1  UNL1       -0.3775
     33 C          19.6317   70.9498   -5.9332 C.3     1  UNL1        0.1715
     34 C          19.8188   72.2649   -6.6922 C.3     1  UNL1        0.1694
     35 C          19.5066   71.2081   -4.4328 C.3     1  UNL1        0.1967
     36 C          20.9312   73.1144   -6.0629 C.3     1  UNL1        0.1761
     37 C          20.6355   72.1026   -3.9177 C.3     1  UNL1        0.2704
     38 H          18.5050   70.1612   -7.3540 H       1  UNL1        0.2105
     39 H          19.4286   71.4149   -8.4305 H       1  UNL1        0.2105
     40 H          18.7867   69.4083   -4.0736 H       1  UNL1        0.2106
     41 O          19.7472   74.8605   -7.1844 O.3     1  UNL1       -0.3794
     42 C          21.0287   74.4962   -6.7056 C.3     1  UNL1        0.1693
     43 H          19.7939   75.7382   -7.5958 H       1  UNL1        0.2105
@<TRIPOS>UNITY_ATOM_ATTR
2 1
charge -1
26 1
charge -1
@<TRIPOS>BOND
     1    25    28    1
     2    25    24    1
     3    25    26    1
     4    25    27    2
     5     1     4    1
     6     1    24    1
     7     1     2    1
     8     1     3    2
     9     6    11    1
    10     6    12    1
    11    29    36    1
    12    29    37    1
    13     7     9    1
    14     7    13    1
    15     8    10    1
    16     8    14    1
    17    28    37    1
    18     4     5    1
    19    30    33    1
    20    30    38    1
    21    31    34    1
    22    31    39    1
    23    32    35    1
    24    32    40    1
    25    41    42    1
    26    41    43    1
    27    15    19    2
    28    16    22    2
    29    17    12    1
    30    17    19   ar
    31    17    20   ar
    32    18    19   ar
    33    18    22   ar
    34    18    23    1
    35     9    10    1
    36     9    11    1
    37    10    12    1
    38    11     5    1
    39    33    34    1
    40    33    35    1
    41    34    36    1
    42    35    37    1
    43    36    42    1
    44    20    21   ar
    45    21    22   ar
@<TRIPOS>MOLECULE
*****
 43 45 0 0 0
SMALL
GASTEIGER

@<TRIPOS>ATOM
      1 P          15.6736   70.2301   -2.3002 P.3     1  UNL1        0.2189
      2 O          14.6742   71.4749   -2.5631 O.co2   1  UNL1       -0.4371
      3 O          15.6024   69.1335   -3.3219 O.2     1  UNL1       -0.5170
      4 O          15.3553   69.7917   -0.7756 O.3     1  UNL1       -0.3112
      5 C          14.0332   69.9460   -0.2897 C.3     1  UNL1        0.1811
      6 O          13.3180   67.6792    0.0619 O.3     1  UNL1       -0.3308
      7 O          11.0611   68.2981   -1.8128 O.3     1  UNL1       -0.3794
      8 O           9.8689   68.4797    0.6331 O.3     1  UNL1       -0.3779
      9 C          11.6849   69.1385   -0.8433 C.3     1  UNL1        0.1713
     10 C          11.2558   68.7387    0.5530 C.3     1  UNL1        0.1895
     11 C          13.1725   68.8099   -0.8251 C.3     1  UNL1        0.1764
     12 C          12.0974   67.4979    0.7983 C.3     1  UNL1        0.2383
     13 H          10.1102   68.4899   -1.8428 H       1  UNL1        0.2105
     14 H           9.3768   69.2994    0.4699 H       1  UNL1        0.2106
     15 O          10.2879   66.5134    2.7307 O.2     1  UNL1       -0.2464
     16 O          13.4186   66.8433    6.0969 O.2     1  UNL1       -0.2670
     17 N          12.4133   67.3161    2.1870 N.ar    1  UNL1       -0.2551
     18 N          11.8483   66.6783    4.4052 N.ar    1  UNL1       -0.2743
     19 C          11.4323   66.8162    3.0748 C.ar    1  UNL1        0.3323
     20 C          13.6839   67.6318    2.6558 C.ar    1  UNL1        0.0869
     21 C          14.0643   67.4958    3.9278 C.ar    1  UNL1        0.0795
     22 C          13.0992   66.9797    4.9199 C.ar    1  UNL1        0.2626
     23 H          11.1815   66.3322    5.0418 H       1  UNL1        0.1734
     24 O          17.1189   70.9437   -2.1789 O.3     1  UNL1       -0.2703
     25 P          18.2804   71.1826   -3.2775 P.3     1  UNL1        0.2208
     26 O          19.1949   69.8545   -3.1455 O.co2   1  UNL1       -0.4371
     27 O          19.0319   72.4712   -3.1081 O.2     1  UNL1       -0.5170
     28 O          17.5354   71.0249   -4.7005 O.3     1  UNL1       -0.2858
     29 O          18.9226   72.0148   -6.3474 O.3     1  UNL1       -0.3258
     30 O          15.6958   71.0098   -8.7199 O.3     1  UNL1       -0.3794
     31 O          18.1408   69.5202   -8.9464 O.3     1  UNL1       -0.3794
     32 O          15.2613   71.9906   -6.0313 O.3     1  UNL1       -0.3775
     33 C          16.6276   70.8413   -7.6481 C.3     1  UNL1        0.1715
     34 C          18.0340   70.7554   -8.2443 C.3     1  UNL1        0.1694
     35 C          16.5177   72.0334   -6.6992 C.3     1  UNL1        0.1967
     36 C          19.1060   70.8423   -7.1496 C.3     1  UNL1        0.1761
     37 C          17.6592   72.0518   -5.6810 C.3     1  UNL1        0.2704
     38 H          15.7601   70.2560   -9.3258 H       1  UNL1        0.2105
     39 H          17.4581   69.4778   -9.6343 H       1  UNL1        0.2105
     40 H          14.5470   71.9796   -6.6867 H       1  UNL1        0.2106
     41 O          20.4449   71.5538   -8.9962 O.3     1  UNL1       -0.3794
     42 C          20.5150   70.9172   -7.7336 C.3     1  UNL1        0.1693
     43 H          21.3346   71.6088   -9.3797 H       1  UNL1        0.2105
@<TRIPOS>UNITY_ATOM_ATTR
2 1
charge -1
26 1
charge -1
@<TRIPOS>BOND
     1    25    28    1
     2    25    24    1
     3    25    26    1
     4    25    27    2
     5     1     4    1
     6     1    24    1
     7     1     2    1
     8     1     3    2
     9     6    11    1
    10     6    12    1
    11    29    36    1
    12    29    37    1
    13     7     9    1
    14     7    13    1
    15     8    10    1
    16     8    14    1
    17    28    37    1
    18     4     5    1
    19    30    33    1
    20    30    38    1
    21    31    34    1
    22    31    39    1
    23    32    35    1
    24    32    40    1
    25    41    42    1
    26    41    43    1
    27    15    19    2
    28    16    22    2
    29    17    12    1
    30    17    19   ar
    31    17    20   ar
    32    18    19   ar
    33    18    22   ar
    34    18    23    1
    35     9    10    1
    36     9    11    1
    37    10    12    1
    38    11     5    1
    39    33    34    1
    40    33    35    1
    41    34    36    1
    42    35    37    1
    43    36    42    1
    44    20    21   ar
    45    21    22   ar
@<TRIPOS>MOLECULE
*****
 43 45 0 0 0
SMALL
GASTEIGER

@<TRIPOS>ATOM
      1 P          20.2248   71.4125   -4.7000 P.3     1  UNL1        0.2189
      2 O          20.4701   69.8147   -4.7646 O.co2   1  UNL1       -0.4371
      3 O          19.5316   71.8977   -3.4608 O.2     1  UNL1       -0.5170
      4 O          19.4821   71.7483   -6.0977 O.3     1  UNL1       -0.3112
      5 C          20.1092   71.3588   -7.3071 C.3     1  UNL1        0.1811
      6 O          18.3842   69.6989   -7.1003 O.3     1  UNL1       -0.3308
      7 O          17.7800   70.2370   -9.9876 O.3     1  UNL1       -0.3794
      8 O          15.8288   71.6413   -8.7002 O.3     1  UNL1       -0.3779
      9 C          18.1938   71.1450   -8.9680 C.3     1  UNL1        0.1713
     10 C          17.0480   71.4275   -8.0187 C.3     1  UNL1        0.1895
     11 C          19.1828   70.4181   -8.0654 C.3     1  UNL1        0.1764
     12 C          17.0283   70.1704   -7.1658 C.3     1  UNL1        0.2383
     13 H          17.1480   70.6789  -10.5769 H       1  UNL1        0.2105
     14 H          15.8914   72.4523   -9.2286 H       1  UNL1        0.2106
     15 O          16.5263   68.1589   -5.2475 O.2     1  UNL1       -0.2464
     16 O          15.2192   71.2457   -2.0844 O.2     1  UNL1       -0.2670
     17 N          16.5566   70.4202   -5.8330 N.ar    1  UNL1       -0.2551
     18 N          15.8761   69.6975   -3.6740 N.ar    1  UNL1       -0.2743
     19 C          16.3353   69.3394   -4.9479 C.ar    1  UNL1        0.3323
     20 C          16.3187   71.7251   -5.4153 C.ar    1  UNL1        0.0869
     21 C          15.8796   72.0498   -4.1975 C.ar    1  UNL1        0.0795
     22 C          15.6234   70.9795   -3.2121 C.ar    1  UNL1        0.2626
     23 H          15.7145   68.9610   -3.0406 H       1  UNL1        0.1734
     24 O          21.7074   72.0172   -4.9219 O.3     1  UNL1       -0.2703
     25 P          22.3745   73.4024   -4.4230 P.3     1  UNL1        0.2208
     26 O          21.0985   74.3753   -4.2158 O.co2   1  UNL1       -0.4371
     27 O          23.4251   73.9472   -5.3468 O.2     1  UNL1       -0.5170
     28 O          22.8957   73.0896   -2.9278 O.3     1  UNL1       -0.2858
     29 O          21.6327   72.5207   -1.0048 O.3     1  UNL1       -0.3258
     30 O          24.6310   74.7129    0.7997 O.3     1  UNL1       -0.3794
     31 O          24.5778   71.8583    1.1110 O.3     1  UNL1       -0.3794
     32 O          23.5704   75.5506   -1.7602 O.3     1  UNL1       -0.3775
     33 C          24.0720   73.8171   -0.1650 C.3     1  UNL1        0.1715
     34 C          23.4922   72.6123    0.5787 C.3     1  UNL1        0.1694
     35 C          22.9788   74.5437   -0.9463 C.3     1  UNL1        0.1967
     36 C          22.6435   71.7401   -0.3562 C.3     1  UNL1        0.1761
     37 C          22.1628   73.5777   -1.8071 C.3     1  UNL1        0.2704
     38 H          25.3261   74.2578    1.2988 H       1  UNL1        0.2105
     39 H          25.1059   72.4207    1.6992 H       1  UNL1        0.2105
     40 H          24.0839   76.1558   -1.2035 H       1  UNL1        0.2106
     41 O          21.8891   70.9596    1.7723 O.3     1  UNL1       -0.3794
     42 C          21.9279   70.6216    0.3980 C.3     1  UNL1        0.1693
     43 H          21.4361   70.2568    2.2648 H       1  UNL1        0.2105
@<TRIPOS>UNITY_ATOM_ATTR
2 1
charge -1
26 1
charge -1
@<TRIPOS>BOND
     1    25    28    1
     2    25    24    1
     3    25    26    1
     4    25    27    2
     5     1     4    1
     6     1    24    1
     7     1     2    1
     8     1     3    2
     9     6    11    1
    10     6    12    1
    11    29    36    1
    12    29    37    1
    13     7     9    1
    14     7    13    1
    15     8    10    1
    16     8    14    1
    17    28    37    1
    18     4     5    1
    19    30    33    1
    20    30    38    1
    21    31    34    1
    22    31    39    1
    23    32    35    1
    24    32    40    1
    25    41    42    1
    26    41    43    1
    27    15    19    2
    28    16    22    2
    29    17    12    1
    30    17    19   ar
    31    17    20   ar
    32    18    19   ar
    33    18    22   ar
    34    18    23    1
    35     9    10    1
    36     9    11    1
    37    10    12    1
    38    11     5    1
    39    33    34    1
    40    33    35    1
    41    34    36    1
    42    35    37    1
    43    36    42    1
    44    20    21   ar
    45    21    22   ar
@<TRIPOS>MOLECULE
*****
 43 45 0 0 0
SMALL
GASTEIGER

@<TRIPOS>ATOM
      1 P          23.4604   72.2502   -3.2519 P.3     1  UNL1        0.2189
      2 O          24.0358   70.7461   -3.0978 O.co2   1  UNL1       -0.4371
      3 O          24.4412   73.2524   -3.7858 O.2     1  UNL1       -0.5170
      4 O          22.8415   72.5807   -1.7939 O.3     1  UNL1       -0.3112
      5 C          23.7146   72.6028   -0.6781 C.3     1  UNL1        0.1811
      6 O          24.2412   71.5016    1.3917 O.3     1  UNL1       -0.3308
      7 O          21.6344   70.0555    1.0692 O.3     1  UNL1       -0.3794
      8 O          21.0182   71.9936    2.8858 O.3     1  UNL1       -0.3779
      9 C          21.9685   71.3999    0.7282 C.3     1  UNL1        0.1713
     10 C          22.0701   72.2495    1.9777 C.3     1  UNL1        0.1895
     11 C          23.4041   71.4116    0.2180 C.3     1  UNL1        0.1764
     12 C          23.4275   71.8430    2.5257 C.3     1  UNL1        0.2383
     13 H          20.7217   70.0226    1.3974 H       1  UNL1        0.2105
     14 H          20.1760   72.2692    2.4914 H       1  UNL1        0.2106
     15 O          26.2224   72.2228    2.6750 O.2     1  UNL1       -0.2464
     16 O          25.7578   75.9464    5.3507 O.2     1  UNL1       -0.2670
     17 N          24.0642   72.9038    3.2541 N.ar    1  UNL1       -0.2551
     18 N          25.9888   74.0767    4.0070 N.ar    1  UNL1       -0.2743
     19 C          25.4749   73.0048    3.2660 C.ar    1  UNL1        0.3323
     20 C          23.2916   73.8302    3.9462 C.ar    1  UNL1        0.0869
     21 C          23.7971   74.8458    4.6491 C.ar    1  UNL1        0.0795
     22 C          25.2623   75.0227    4.7127 C.ar    1  UNL1        0.2626
     23 H          26.9691   74.1668    4.0299 H       1  UNL1        0.1734
     24 O          22.1440   72.0438   -4.1671 O.3     1  UNL1       -0.2703
     25 P          20.5920   71.8398   -3.7637 P.3     1  UNL1        0.2208
     26 O          20.1771   73.2766   -3.1465 O.co2   1  UNL1       -0.4371
     27 O          20.3420   70.6768   -2.8478 O.2     1  UNL1       -0.5170
     28 O          19.8105   71.7608   -5.1736 O.3     1  UNL1       -0.2858
     29 O          18.4768   70.0213   -6.0748 O.3     1  UNL1       -0.3258
     30 O          20.2525   71.3610   -9.5537 O.3     1  UNL1       -0.3794
     31 O          17.4776   71.9221   -9.0710 O.3     1  UNL1       -0.3794
     32 O          21.7853   71.2490   -7.1006 O.3     1  UNL1       -0.3775
     33 C          19.6817   71.4902   -8.2487 C.3     1  UNL1        0.1715
     34 C          18.2368   70.9904   -8.3056 C.3     1  UNL1        0.1694
     35 C          20.4996   70.6595   -7.2617 C.3     1  UNL1        0.1967
     36 C          17.6443   70.8472   -6.8973 C.3     1  UNL1        0.1761
     37 C          19.7981   70.5392   -5.9076 C.3     1  UNL1        0.2704
     38 H          19.7382   71.8865  -10.1852 H       1  UNL1        0.2105
     39 H          17.8625   72.0036   -9.9578 H       1  UNL1        0.2105
     40 H          22.2192   71.3193   -7.9647 H       1  UNL1        0.2106
     41 O          16.1783   69.2745   -5.8551 O.3     1  UNL1       -0.3794
     42 C          16.2606   70.2017   -6.9218 C.3     1  UNL1        0.1693
     43 H          15.3027   68.8560   -5.8582 H       1  UNL1        0.2105
@<TRIPOS>UNITY_ATOM_ATTR
2 1
charge -1
26 1
charge -1
@<TRIPOS>BOND
     1    25    28    1
     2    25    24    1
     3    25    26    1
     4    25    27    2
     5     1     4    1
     6     1    24    1
     7     1     2    1
     8     1     3    2
     9     6    11    1
    10     6    12    1
    11    29    36    1
    12    29    37    1
    13     7     9    1
    14     7    13    1
    15     8    10    1
    16     8    14    1
    17    28    37    1
    18     4     5    1
    19    30    33    1
    20    30    38    1
    21    31    34    1
    22    31    39    1
    23    32    35    1
    24    32    40    1
    25    41    42    1
    26    41    43    1
    27    15    19    2
    28    16    22    2
    29    17    12    1
    30    17    19   ar
    31    17    20   ar
    32    18    19   ar
    33    18    22   ar
    34    18    23    1
    35     9    10    1
    36     9    11    1
    37    10    12    1
    38    11     5    1
    39    33    34    1
    40    33    35    1
    41    34    36    1
    42    35    37    1
    43    36    42    1
    44    20    21   ar
    45    21    22   ar
@<TRIPOS>MOLECULE
*****
 43 45 0 0 0
SMALL
GASTEIGER

@<TRIPOS>ATOM
      1 P          21.8702   72.4976   -5.6211 P.3     1  UNL1        0.2189
      2 O          21.2371   73.9611   -5.3478 O.co2   1  UNL1       -0.4371
      3 O          23.1245   72.4934   -6.4445 O.2     1  UNL1       -0.5170
      4 O          20.6329   71.6451   -6.2213 O.3     1  UNL1       -0.3112
      5 C          20.1006   72.0203   -7.4797 C.3     1  UNL1        0.1811
      6 O          18.8976   69.9773   -7.0892 O.3     1  UNL1       -0.3308
      7 O          18.1538   70.0796   -9.9921 O.3     1  UNL1       -0.3794
      8 O          15.8993   71.0043   -8.7679 O.3     1  UNL1       -0.3779
      9 C          18.3083   71.1503   -9.0621 C.3     1  UNL1        0.1713
     10 C          17.1340   71.1904   -8.1065 C.3     1  UNL1        0.1895
     11 C          19.4634   70.8010   -8.1320 C.3     1  UNL1        0.1764
     12 C          17.4641   70.0539   -7.1539 C.3     1  UNL1        0.2383
     13 H          17.4218   70.2801  -10.5970 H       1  UNL1        0.2105
     14 H          15.7345   71.7530   -9.3621 H       1  UNL1        0.2106
     15 O          16.2964   68.0565   -5.5338 O.2     1  UNL1       -0.2464
     16 O          15.5210   71.0347   -2.1030 O.2     1  UNL1       -0.2670
     17 N          16.9491   70.2795   -5.8328 N.ar    1  UNL1       -0.2551
     18 N          15.9115   69.5410   -3.8267 N.ar    1  UNL1       -0.2743
     19 C          16.3818   69.2085   -5.1036 C.ar    1  UNL1        0.3323
     20 C          17.0096   71.5511   -5.2733 C.ar    1  UNL1        0.0869
     21 C          16.5554   71.8519   -4.0549 C.ar    1  UNL1        0.0795
     22 C          15.9479   70.7899   -3.2271 C.ar    1  UNL1        0.2626
     23 H          15.5118   68.8109   -3.3004 H       1  UNL1        0.1734
     24 O          22.0407   71.8916   -4.1323 O.3     1  UNL1       -0.2703
     25 P          23.2607   71.9959   -3.0770 P.3     1  UNL1        0.2208
     26 O          23.9221   73.4331   -3.4155 O.co2   1  UNL1       -0.4371
     27 O          24.2216   70.8437   -3.1314 O.2     1  UNL1       -0.5170
     28 O          22.5456   72.2034   -1.6450 O.3     1  UNL1       -0.2858
     29 O          23.4707   70.7021   -0.0618 O.3     1  UNL1       -0.3258
     30 O          20.4022   72.2596    2.2206 O.3     1  UNL1       -0.3794
     31 O          23.1153   73.0086    2.7917 O.3     1  UNL1       -0.3794
     32 O          19.9850   71.7366   -0.5958 O.3     1  UNL1       -0.3775
     33 C          21.4424   72.2921    1.2396 C.3     1  UNL1        0.1715
     34 C          22.7612   71.9329    1.9270 C.3     1  UNL1        0.1694
     35 C          21.1197   71.2861    0.1363 C.3     1  UNL1        0.1967
     36 C          23.8729   71.6861    0.8982 C.3     1  UNL1        0.1761
     37 C          22.3086   71.0778   -0.8035 C.3     1  UNL1        0.2704
     38 H          20.6008   72.8965    2.9238 H       1  UNL1        0.2105
     39 H          22.4048   73.1544    3.4361 H       1  UNL1        0.2105
     40 H          19.2392   71.8644    0.0102 H       1  UNL1        0.2106
     41 O          24.8334   70.0458    2.3459 O.3     1  UNL1       -0.3794
     42 C          25.1541   71.1736    1.5525 C.3     1  UNL1        0.1693
     43 H          25.6394   69.7086    2.7683 H       1  UNL1        0.2105
@<TRIPOS>UNITY_ATOM_ATTR
2 1
charge -1
26 1
charge -1
@<TRIPOS>BOND
     1    25    28    1
     2    25    24    1
     3    25    26    1
     4    25    27    2
     5     1     4    1
     6     1    24    1
     7     1     2    1
     8     1     3    2
     9     6    11    1
    10     6    12    1
    11    29    36    1
    12    29    37    1
    13     7     9    1
    14     7    13    1
    15     8    10    1
    16     8    14    1
    17    28    37    1
    18     4     5    1
    19    30    33    1
    20    30    38    1
    21    31    34    1
    22    31    39    1
    23    32    35    1
    24    32    40    1
    25    41    42    1
    26    41    43    1
    27    15    19    2
    28    16    22    2
    29    17    12    1
    30    17    19   ar
    31    17    20   ar
    32    18    19   ar
    33    18    22   ar
    34    18    23    1
    35     9    10    1
    36     9    11    1
    37    10    12    1
    38    11     5    1
    39    33    34    1
    40    33    35    1
    41    34    36    1
    42    35    37    1
    43    36    42    1
    44    20    21   ar
    45    21    22   ar
@<TRIPOS>MOLECULE
*****
 43 45 0 0 0
SMALL
GASTEIGER

@<TRIPOS>ATOM
      1 P          23.3603   72.1199   -3.5246 P.3     1  UNL1        0.2189
      2 O          24.1225   72.8408   -4.7562 O.co2   1  UNL1       -0.4371
      3 O          24.1379   71.0285   -2.8496 O.2     1  UNL1       -0.5170
      4 O          21.9350   71.6819   -4.1529 O.3     1  UNL1       -0.3112
      5 C          21.3582   72.4999   -5.1559 C.3     1  UNL1        0.1811
      6 O          20.4167   70.4774   -6.0484 O.3     1  UNL1       -0.3308
      7 O          20.6079   71.7954   -8.7349 O.3     1  UNL1       -0.3794
      8 O          17.9717   72.1028   -8.1083 O.3     1  UNL1       -0.3779
      9 C          20.3012   72.3724   -7.4666 C.3     1  UNL1        0.1713
     10 C          18.8959   71.9978   -7.0445 C.3     1  UNL1        0.1895
     11 C          21.1480   71.6682   -6.4138 C.3     1  UNL1        0.1764
     12 C          19.0805   70.5666   -6.5695 C.3     1  UNL1        0.2383
     13 H          20.0793   72.2293   -9.4236 H       1  UNL1        0.2105
     14 H          17.8890   73.0317   -8.3745 H       1  UNL1        0.2106
     15 O          16.4362   69.6883   -7.0327 O.2     1  UNL1       -0.2464
     16 O          15.6062   69.2226   -2.5233 O.2     1  UNL1       -0.2670
     17 N          18.1516   70.2087   -5.5348 N.ar    1  UNL1       -0.2551
     18 N          16.0252   69.4569   -4.7870 N.ar    1  UNL1       -0.2743
     19 C          16.8469   69.7810   -5.8741 C.ar    1  UNL1        0.3323
     20 C          18.5376   70.2834   -4.2009 C.ar    1  UNL1        0.0869
     21 C          17.7416   69.9720   -3.1759 C.ar    1  UNL1        0.0795
     22 C          16.3624   69.5161   -3.4441 C.ar    1  UNL1        0.2626
     23 H          15.1116   69.1568   -4.9992 H       1  UNL1        0.1734
     24 O          22.9683   73.3596   -2.5641 O.3     1  UNL1       -0.2703
     25 P          23.8418   74.6154   -2.0420 P.3     1  UNL1        0.2208
     26 O          22.7179   75.7065   -1.6371 O.co2   1  UNL1       -0.4371
     27 O          24.8584   75.1109   -3.0294 O.2     1  UNL1       -0.5170
     28 O          24.4603   74.1256   -0.6340 O.3     1  UNL1       -0.2858
     29 O          22.6005   73.0727    0.3902 O.3     1  UNL1       -0.3258
     30 O          25.4904   72.1906    3.2046 O.3     1  UNL1       -0.3794
     31 O          24.4953   70.1095    1.4938 O.3     1  UNL1       -0.3794
     32 O          25.4906   74.7721    1.8950 O.3     1  UNL1       -0.3775
     33 C          24.9804   72.4182    1.8880 C.3     1  UNL1        0.1715
     34 C          23.8812   71.3896    1.6150 C.3     1  UNL1        0.1694
     35 C          24.4206   73.8372    1.8080 C.3     1  UNL1        0.1967
     36 C          23.1059   71.7335    0.3361 C.3     1  UNL1        0.1761
     37 C          23.6261   74.0592    0.5197 C.3     1  UNL1        0.2704
     38 H          25.8478   71.2914    3.2620 H       1  UNL1        0.2105
     39 H          24.9820   69.9046    2.3077 H       1  UNL1        0.2105
     40 H          25.9856   74.6214    2.7148 H       1  UNL1        0.2106
     41 O          21.6426   70.1373    1.3460 O.3     1  UNL1       -0.3794
     42 C          21.9059   70.8119    0.1295 C.3     1  UNL1        0.1693
     43 H          20.8810   69.5473    1.2296 H       1  UNL1        0.2105
@<TRIPOS>UNITY_ATOM_ATTR
2 1
charge -1
26 1
charge -1
@<TRIPOS>BOND
     1    25    28    1
     2    25    24    1
     3    25    26    1
     4    25    27    2
     5     1     4    1
     6     1    24    1
     7     1     2    1
     8     1     3    2
     9     6    11    1
    10     6    12    1
    11    29    36    1
    12    29    37    1
    13     7     9    1
    14     7    13    1
    15     8    10    1
    16     8    14    1
    17    28    37    1
    18     4     5    1
    19    30    33    1
    20    30    38    1
    21    31    34    1
    22    31    39    1
    23    32    35    1
    24    32    40    1
    25    41    42    1
    26    41    43    1
    27    15    19    2
    28    16    22    2
    29    17    12    1
    30    17    19   ar
    31    17    20   ar
    32    18    19   ar
    33    18    22   ar
    34    18    23    1
    35     9    10    1
    36     9    11    1
    37    10    12    1
    38    11     5    1
    39    33    34    1
    40    33    35    1
    41    34    36    1
    42    35    37    1
    43    36    42    1
    44    20    21   ar
    45    21    22   ar
@<TRIPOS>MOLECULE
*****
 43 45 0 0 0
SMALL
GASTEIGER

@<TRIPOS>ATOM
      1 P          20.6566   73.6814   -1.4224 P.3     1  UNL1        0.2189
      2 O          19.3503   72.7407   -1.5838 O.co2   1  UNL1       -0.4371
      3 O          20.5547   74.7294   -0.3535 O.2     1  UNL1       -0.5170
      4 O          20.9279   74.2296   -2.9203 O.3     1  UNL1       -0.3112
      5 C          20.3472   73.5347   -4.0102 C.3     1  UNL1        0.1811
      6 O          20.6674   71.3546   -4.9684 O.3     1  UNL1       -0.3308
      7 O          23.3081   72.3799   -5.9512 O.3     1  UNL1       -0.3794
      8 O          21.7443   72.5329   -8.1800 O.3     1  UNL1       -0.3779
      9 C          22.0629   73.0654   -5.8292 C.3     1  UNL1        0.1713
     10 C          21.1103   72.6235   -6.9204 C.3     1  UNL1        0.1895
     11 C          21.3673   72.5549   -4.5736 C.3     1  UNL1        0.1764
     12 C          20.6428   71.2738   -6.4028 C.3     1  UNL1        0.2383
     13 H          23.7710   72.6896   -6.7461 H       1  UNL1        0.2105
     14 H          22.0232   73.4168   -8.4660 H       1  UNL1        0.2106
     15 O          20.0131   69.9346   -8.8087 O.2     1  UNL1       -0.2464
     16 O          15.4910   70.1082   -7.9360 O.2     1  UNL1       -0.2670
     17 N          19.3091   70.9557   -6.8291 N.ar    1  UNL1       -0.2551
     18 N          17.7620   70.0220   -8.3721 N.ar    1  UNL1       -0.2743
     19 C          19.1014   70.2819   -8.0552 C.ar    1  UNL1        0.3323
     20 C          18.2244   71.3110   -6.0347 C.ar    1  UNL1        0.0869
     21 C          16.9532   71.0570   -6.3518 C.ar    1  UNL1        0.0795
     22 C          16.6495   70.3562   -7.6162 C.ar    1  UNL1        0.2626
     23 H          17.5930   69.5537   -9.2218 H       1  UNL1        0.1734
     24 O          21.8496   72.6125   -1.2051 O.3     1  UNL1       -0.2703
     25 P          22.1582   71.6000    0.0166 P.3     1  UNL1        0.2208
     26 O          23.5385   70.8858   -0.4331 O.co2   1  UNL1       -0.4371
     27 O          21.0394   70.6472    0.3237 O.2     1  UNL1       -0.5170
     28 O          22.5769   72.5586    1.2458 O.3     1  UNL1       -0.2858
     29 O          24.1992   72.3538    2.9612 O.3     1  UNL1       -0.3258
     30 O          21.1046   73.9664    5.1688 O.3     1  UNL1       -0.3794
     31 O          23.3897   75.5869    4.5361 O.3     1  UNL1       -0.3794
     32 O          20.5422   72.0196    3.1017 O.3     1  UNL1       -0.3775
     33 C          21.9161   73.7790    4.0062 C.3     1  UNL1        0.1715
     34 C          23.3524   74.1740    4.3551 C.3     1  UNL1        0.1694
     35 C          21.8497   72.3130    3.5821 C.3     1  UNL1        0.1967
     36 C          24.3277   73.7512    3.2483 C.3     1  UNL1        0.1761
     37 C          22.8933   71.9866    2.5123 C.3     1  UNL1        0.2704
     38 H          21.1420   74.8953    5.4430 H       1  UNL1        0.2105
     39 H          22.7691   75.8408    5.2373 H       1  UNL1        0.2105
     40 H          19.8908   72.2302    3.7881 H       1  UNL1        0.2106
     41 O          26.5797   72.9722    3.0736 O.3     1  UNL1       -0.3794
     42 C          25.7825   73.9932    3.6447 C.3     1  UNL1        0.1693
     43 H          27.5084   73.1135    3.3173 H       1  UNL1        0.2105
@<TRIPOS>UNITY_ATOM_ATTR
2 1
charge -1
26 1
charge -1
@<TRIPOS>BOND
     1    25    28    1
     2    25    24    1
     3    25    26    1
     4    25    27    2
     5     1     4    1
     6     1    24    1
     7     1     2    1
     8     1     3    2
     9     6    11    1
    10     6    12    1
    11    29    36    1
    12    29    37    1
    13     7     9    1
    14     7    13    1
    15     8    10    1
    16     8    14    1
    17    28    37    1
    18     4     5    1
    19    30    33    1
    20    30    38    1
    21    31    34    1
    22    31    39    1
    23    32    35    1
    24    32    40    1
    25    41    42    1
    26    41    43    1
    27    15    19    2
    28    16    22    2
    29    17    12    1
    30    17    19   ar
    31    17    20   ar
    32    18    19   ar
    33    18    22   ar
    34    18    23    1
    35     9    10    1
    36     9    11    1
    37    10    12    1
    38    11     5    1
    39    33    34    1
    40    33    35    1
    41    34    36    1
    42    35    37    1
    43    36    42    1
    44    20    21   ar
    45    21    22   ar
@<TRIPOS>MOLECULE
*****
 43 45 0 0 0
SMALL
GASTEIGER

@<TRIPOS>ATOM
      1 P          23.1056   71.5329   -3.3339 P.3     1  UNL1        0.2189
      2 O          21.7656   70.6454   -3.5181 O.co2   1  UNL1       -0.4371
      3 O          24.3384   70.7537   -2.9812 O.2     1  UNL1       -0.5170
      4 O          22.6711   72.6774   -2.2759 O.3     1  UNL1       -0.3112
      5 C          23.3372   72.7309   -1.0264 C.3     1  UNL1        0.1811
      6 O          24.3058   71.0663    0.4104 O.3     1  UNL1       -0.3308
      7 O          21.4922   70.2517    1.0516 O.3     1  UNL1       -0.3794
      8 O          22.1871   71.7483    3.2227 O.3     1  UNL1       -0.3779
      9 C          22.0205   71.5537    0.8049 C.3     1  UNL1        0.1713
     10 C          22.8286   72.0274    1.9950 C.3     1  UNL1        0.1895
     11 C          23.0878   71.4302   -0.2754 C.3     1  UNL1        0.1764
     12 C          24.1249   71.2539    1.8236 C.3     1  UNL1        0.2383
     13 H          20.8082   70.3052    1.7380 H       1  UNL1        0.2105
     14 H          21.3680   72.2641    3.2843 H       1  UNL1        0.2106
     15 O          24.1268   74.0009    2.4809 O.2     1  UNL1       -0.2464
     16 O          28.5316   73.8625    3.8300 O.2     1  UNL1       -0.2670
     17 N          25.2584   71.9615    2.3488 N.ar    1  UNL1       -0.2551
     18 N          26.3200   73.9297    3.1523 N.ar    1  UNL1       -0.2743
     19 C          25.1548   73.3407    2.6449 C.ar    1  UNL1        0.3323
     20 C          26.4559   71.2885    2.5655 C.ar    1  UNL1        0.0869
     21 C          27.5583   71.8651    3.0487 C.ar    1  UNL1        0.0795
     22 C          27.5344   73.3035    3.3840 C.ar    1  UNL1        0.2626
     23 H          26.2716   74.8899    3.3655 H       1  UNL1        0.1734
     24 O          23.1987   72.3443   -4.7289 O.3     1  UNL1       -0.2703
     25 P          22.1833   73.3999   -5.4128 P.3     1  UNL1        0.2208
     26 O          22.8473   73.6665   -6.8639 O.co2   1  UNL1       -0.4371
     27 O          21.9480   74.6412   -4.6019 O.2     1  UNL1       -0.5170
     28 O          20.8520   72.5425   -5.7250 O.3     1  UNL1       -0.2858
     29 O          18.7364   72.9284   -6.7211 O.3     1  UNL1       -0.3258
     30 O          17.5057   70.9954   -3.2860 O.3     1  UNL1       -0.3794
     31 O          17.3625   69.6315   -5.8093 O.3     1  UNL1       -0.3794
     32 O          19.7152   72.8626   -3.1794 O.3     1  UNL1       -0.3775
     33 C          18.3762   71.2664   -4.3879 C.3     1  UNL1        0.1715
     34 C          17.5972   71.0312   -5.6835 C.3     1  UNL1        0.1694
     35 C          18.8533   72.7150   -4.3027 C.3     1  UNL1        0.1967
     36 C          18.3738   71.5542   -6.8995 C.3     1  UNL1        0.1761
     37 C          19.5705   73.1496   -5.5821 C.3     1  UNL1        0.2704
     38 H          17.1996   70.0770   -3.3339 H       1  UNL1        0.2105
     39 H          16.8719   69.3138   -5.0350 H       1  UNL1        0.2105
     40 H          19.2494   72.5846   -2.3759 H       1  UNL1        0.2106
     41 O          17.4573   70.1156   -8.5726 O.3     1  UNL1       -0.3794
     42 C          17.5495   71.4734   -8.1825 C.3     1  UNL1        0.1693
     43 H          16.9350   70.0488   -9.3878 H       1  UNL1        0.2105
@<TRIPOS>UNITY_ATOM_ATTR
2 1
charge -1
26 1
charge -1
@<TRIPOS>BOND
     1    25    28    1
     2    25    24    1
     3    25    26    1
     4    25    27    2
     5     1     4    1
     6     1    24    1
     7     1     2    1
     8     1     3    2
     9     6    11    1
    10     6    12    1
    11    29    36    1
    12    29    37    1
    13     7     9    1
    14     7    13    1
    15     8    10    1
    16     8    14    1
    17    28    37    1
    18     4     5    1
    19    30    33    1
    20    30    38    1
    21    31    34    1
    22    31    39    1
    23    32    35    1
    24    32    40    1
    25    41    42    1
    26    41    43    1
    27    15    19    2
    28    16    22    2
    29    17    12    1
    30    17    19   ar
    31    17    20   ar
    32    18    19   ar
    33    18    22   ar
    34    18    23    1
    35     9    10    1
    36     9    11    1
    37    10    12    1
    38    11     5    1
    39    33    34    1
    40    33    35    1
    41    34    36    1
    42    35    37    1
    43    36    42    1
    44    20    21   ar
    45    21    22   ar
@<TRIPOS>MOLECULE
*****
 43 45 0 0 0
SMALL
GASTEIGER

@<TRIPOS>ATOM
      1 P          23.4407   72.3193   -3.4201 P.3     1  UNL1        0.2189
      2 O          24.0686   70.8461   -3.1899 O.co2   1  UNL1       -0.4371
      3 O          24.4015   73.3418   -3.9517 O.2     1  UNL1       -0.5170
      4 O          22.7518   72.6741   -1.9997 O.3     1  UNL1       -0.3112
      5 C          23.5726   72.7332   -0.8462 C.3     1  UNL1        0.1811
      6 O          24.5770   71.2350    0.7413 O.3     1  UNL1       -0.3308
      7 O          21.8015   70.2288    1.2657 O.3     1  UNL1       -0.3794
      8 O          22.2393   71.8944    3.3801 O.3     1  UNL1       -0.3779
      9 C          22.2403   71.5543    0.9727 C.3     1  UNL1        0.1713
     10 C          22.9326   72.1573    2.1772 C.3     1  UNL1        0.1895
     11 C          23.3795   71.4596   -0.0345 C.3     1  UNL1        0.1764
     12 C          24.2938   71.4846    2.1278 C.3     1  UNL1        0.2383
     13 H          21.0738   70.2637    1.9069 H       1  UNL1        0.2105
     14 H          21.3800   72.3438    3.3632 H       1  UNL1        0.2106
     15 O          26.9824   70.6740    2.4321 O.2     1  UNL1       -0.2464
     16 O          28.1943   74.7368    4.2394 O.2     1  UNL1       -0.2670
     17 N          25.3331   72.3105    2.6747 N.ar    1  UNL1       -0.2551
     18 N          27.5837   72.6977    3.3316 N.ar    1  UNL1       -0.2743
     19 C          26.6504   71.8075    2.7850 C.ar    1  UNL1        0.3323
     20 C          25.0417   73.6038    3.0945 C.ar    1  UNL1        0.0869
     21 C          25.9428   74.4396    3.6148 C.ar    1  UNL1        0.0795
     22 C          27.3425   73.9919    3.7646 C.ar    1  UNL1        0.2626
     23 H          28.5079   72.3689    3.4184 H       1  UNL1        0.1734
     24 O          22.1709   72.0277   -4.3770 O.3     1  UNL1       -0.2703
     25 P          21.6588   72.7719   -5.7174 P.3     1  UNL1        0.2208
     26 O          22.6404   72.1888   -6.8637 O.co2   1  UNL1       -0.4371
     27 O          21.6408   74.2700   -5.6209 O.2     1  UNL1       -0.5170
     28 O          20.2232   72.1047   -6.0321 O.3     1  UNL1       -0.2858
     29 O          19.4280   69.9269   -5.5406 O.3     1  UNL1       -0.3258
     30 O          17.5571   70.5078   -9.1756 O.3     1  UNL1       -0.3794
     31 O          16.0080   70.5676   -6.7580 O.3     1  UNL1       -0.3794
     32 O          20.2532   71.4795   -8.7676 O.3     1  UNL1       -0.3775
     33 C          18.0818   70.8970   -7.9033 C.3     1  UNL1        0.1715
     34 C          17.3526   70.1001   -6.8198 C.3     1  UNL1        0.1694
     35 C          19.5804   70.6029   -7.8703 C.3     1  UNL1        0.1967
     36 C          18.0381   70.2630   -5.4565 C.3     1  UNL1        0.1761
     37 C          20.1532   70.7467   -6.4592 C.3     1  UNL1        0.2704
     38 H          16.6060   70.6923   -9.2033 H       1  UNL1        0.2105
     39 H          15.5867   70.4596   -7.6252 H       1  UNL1        0.2105
     40 H          19.8817   71.3787   -9.6574 H       1  UNL1        0.2106
     41 O          16.0856   69.0725   -4.7643 O.3     1  UNL1       -0.3794
     42 C          17.4229   69.3541   -4.3947 C.3     1  UNL1        0.1693
     43 H          15.6813   68.4946   -4.0977 H       1  UNL1        0.2105
@<TRIPOS>UNITY_ATOM_ATTR
2 1
charge -1
26 1
charge -1
@<TRIPOS>BOND
     1    25    28    1
     2    25    24    1
     3    25    26    1
     4    25    27    2
     5     1     4    1
     6     1    24    1
     7     1     2    1
     8     1     3    2
     9     6    11    1
    10     6    12    1
    11    29    36    1
    12    29    37    1
    13     7     9    1
    14     7    13    1
    15     8    10    1
    16     8    14    1
    17    28    37    1
    18     4     5    1
    19    30    33    1
    20    30    38    1
    21    31    34    1
    22    31    39    1
    23    32    35    1
    24    32    40    1
    25    41    42    1
    26    41    43    1
    27    15    19    2
    28    16    22    2
    29    17    12    1
    30    17    19   ar
    31    17    20   ar
    32    18    19   ar
    33    18    22   ar
    34    18    23    1
    35     9    10    1
    36     9    11    1
    37    10    12    1
    38    11     5    1
    39    33    34    1
    40    33    35    1
    41    34    36    1
    42    35    37    1
    43    36    42    1
    44    20    21   ar
    45    21    22   ar
@<TRIPOS>MOLECULE
*****
 43 45 0 0 0
SMALL
GASTEIGER

@<TRIPOS>ATOM
      1 P          22.2618   72.3959   -4.0560 P.3     1  UNL1        0.2189
      2 O          21.4529   71.0105   -3.8470 O.co2   1  UNL1       -0.4371
      3 O          23.5980   72.2551   -4.7239 O.2     1  UNL1       -0.5170
      4 O          22.2801   73.0612   -2.5812 O.3     1  UNL1       -0.3112
      5 C          21.3711   72.5753   -1.6089 C.3     1  UNL1        0.1811
      6 O          23.4193   71.9089   -0.5437 O.3     1  UNL1       -0.3308
      7 O          21.7527   69.9778    1.0323 O.3     1  UNL1       -0.3794
      8 O          22.1315   72.0179    2.8018 O.3     1  UNL1       -0.3779
      9 C          21.4303   71.2949    0.5889 C.3     1  UNL1        0.1713
     10 C          22.1637   72.3246    1.4228 C.3     1  UNL1        0.1895
     11 C          22.0571   71.4938   -0.7855 C.3     1  UNL1        0.1764
     12 C          23.5660   72.2597    0.8420 C.3     1  UNL1        0.2383
     13 H          21.3628   69.8272    1.9083 H       1  UNL1        0.2105
     14 H          21.2184   72.0728    3.1242 H       1  UNL1        0.2106
     15 O          25.3101   72.9709    2.9468 O.2     1  UNL1       -0.2464
     16 O          26.1561   77.1050    1.0936 O.2     1  UNL1       -0.2670
     17 N          24.2559   73.5155    0.9346 N.ar    1  UNL1       -0.2551
     18 N          25.7301   75.0288    2.0223 N.ar    1  UNL1       -0.2743
     19 C          25.1083   73.7736    2.0333 C.ar    1  UNL1        0.3323
     20 C          24.0842   74.4751   -0.0571 C.ar    1  UNL1        0.0869
     21 C          24.6834   75.6677   -0.0522 C.ar    1  UNL1        0.0795
     22 C          25.5904   76.0166    1.0603 C.ar    1  UNL1        0.2626
     23 H          26.3282   75.2309    2.7780 H       1  UNL1        0.1734
     24 O          21.2029   73.3177   -4.8572 O.3     1  UNL1       -0.2703
     25 P          19.5873   73.2861   -4.9001 P.3     1  UNL1        0.2208
     26 O          19.1906   74.8434   -5.0876 O.co2   1  UNL1       -0.4371
     27 O          18.9530   72.6243   -3.7112 O.2     1  UNL1       -0.5170
     28 O          19.2296   72.6009   -6.3170 O.3     1  UNL1       -0.2858
     29 O          18.7151   70.3834   -5.6579 O.3     1  UNL1       -0.3258
     30 O          17.7199   70.1307   -9.6575 O.3     1  UNL1       -0.3794
     31 O          15.6392   70.1690   -7.6782 O.3     1  UNL1       -0.3794
     32 O          20.0319   71.6683   -8.8392 O.3     1  UNL1       -0.3775
     33 C          17.8446   70.7687   -8.3836 C.3     1  UNL1        0.1715
     34 C          17.0169   69.9783   -7.3683 C.3     1  UNL1        0.1694
     35 C          19.3170   70.7891   -7.9775 C.3     1  UNL1        0.1967
     36 C          17.3109   70.4399   -5.9345 C.3     1  UNL1        0.1761
     37 C          19.4949   71.2153   -6.5192 C.3     1  UNL1        0.2704
     38 H          16.7873   70.1149   -9.9213 H       1  UNL1        0.2105
     39 H          15.4670   69.8741   -8.5863 H       1  UNL1        0.2105
     40 H          19.9116   71.3877   -9.7593 H       1  UNL1        0.2106
     41 O          16.2560   68.3380   -5.5126 O.3     1  UNL1       -0.3794
     42 C          16.6161   69.5609   -4.8969 C.3     1  UNL1        0.1693
     43 H          15.8130   67.7682   -4.8639 H       1  UNL1        0.2105
@<TRIPOS>UNITY_ATOM_ATTR
2 1
charge -1
26 1
charge -1
@<TRIPOS>BOND
     1    25    28    1
     2    25    24    1
     3    25    26    1
     4    25    27    2
     5     1     4    1
     6     1    24    1
     7     1     2    1
     8     1     3    2
     9     6    11    1
    10     6    12    1
    11    29    36    1
    12    29    37    1
    13     7     9    1
    14     7    13    1
    15     8    10    1
    16     8    14    1
    17    28    37    1
    18     4     5    1
    19    30    33    1
    20    30    38    1
    21    31    34    1
    22    31    39    1
    23    32    35    1
    24    32    40    1
    25    41    42    1
    26    41    43    1
    27    15    19    2
    28    16    22    2
    29    17    12    1
    30    17    19   ar
    31    17    20   ar
    32    18    19   ar
    33    18    22   ar
    34    18    23    1
    35     9    10    1
    36     9    11    1
    37    10    12    1
    38    11     5    1
    39    33    34    1
    40    33    35    1
    41    34    36    1
    42    35    37    1
    43    36    42    1
    44    20    21   ar
    45    21    22   ar
