@<TRIPOS>MOLECULE
UD1
 46 48 0 0 0
SMALL
GASTEIGER

@<TRIPOS>ATOM
      1 P          20.7110   71.5015   -2.0656 P.3     1  UNL1        0.2189
      2 O          21.0408   72.9415   -1.9858 O.2     1  UNL1       -0.5170
      3 O          22.0309   70.6698   -2.4638 O.3     1  UNL1       -0.4371
      4 O          19.5758   71.2727   -3.1845 O.3     1  UNL1       -0.3112
      5 C          18.3987   70.8438   -2.4983 C.3     1  UNL1        0.1811
      6 C          16.8962   70.5394   -5.7505 C.3     1  UNL1        0.2383
      7 C          16.8663   69.1021   -5.1730 C.3     1  UNL1        0.1895
      8 O          15.7434   68.3742   -5.6714 O.3     1  UNL1       -0.3779
      9 C          16.7240   69.3654   -3.6513 C.3     1  UNL1        0.1713
     10 C          17.2212   70.8131   -3.4738 C.3     1  UNL1        0.1764
     11 O          17.6436   71.2837   -4.7651 O.3     1  UNL1       -0.3308
     12 O          15.3579   69.2458   -3.2485 O.3     1  UNL1       -0.3794
     13 H          15.7833   67.4923   -5.2761 H       1  UNL1        0.2106
     14 H          15.0890   68.3374   -3.4394 H       1  UNL1        0.2105
     15 N          17.5794   70.5652   -7.0443 N.ar    1  UNL1       -0.2551
     16 C          16.8609   70.4998   -8.1787 C.ar    1  UNL1        0.3323
     17 N          17.4625   70.5255   -9.3827 N.ar    1  UNL1       -0.2743
     18 C          18.8054   70.6086   -9.4696 C.ar    1  UNL1        0.2626
     19 C          19.5744   70.6721   -8.2833 C.ar    1  UNL1        0.0795
     20 C          18.9450   70.6499   -7.0889 C.ar    1  UNL1        0.0869
     21 O          15.6488   70.4246   -8.1166 O.2     1  UNL1       -0.2464
     22 O          19.3507   70.6271  -10.5576 O.2     1  UNL1       -0.2670
     23 H          16.9283   70.4822  -10.1907 H       1  UNL1        0.1734
     24 O          20.1670   70.9956   -0.6383 O.3     1  UNL1       -0.2703
     25 P          21.3179   71.3185    0.4389 P.3     1  UNL1        0.2208
     26 O          22.4011   72.0877   -0.2123 O.2     1  UNL1       -0.5170
     27 O          21.9136   69.9396    1.0186 O.3     1  UNL1       -0.4371
     28 O          20.6973   72.1829    1.6464 O.3     1  UNL1       -0.2865
     29 C          21.5084   73.3515    1.7793 C.3     1  UNL1        0.2611
     30 C          22.3701   73.2278    3.0372 C.3     1  UNL1        0.1582
     31 C          21.4561   73.0621    4.2565 C.3     1  UNL1        0.1625
     32 C          20.4437   74.2123    4.2701 C.3     1  UNL1        0.1686
     33 C          19.7251   74.2597    2.9201 C.3     1  UNL1        0.1760
     34 O          22.2400   73.0955    5.4506 O.3     1  UNL1       -0.3801
     35 O          19.4909   73.9979    5.3131 O.3     1  UNL1       -0.3794
     36 O          20.6707   74.5011    1.8789 O.3     1  UNL1       -0.3263
     37 H          21.6267   72.9878    6.1905 H       1  UNL1        0.2105
     38 H          18.8736   74.7427    5.2855 H       1  UNL1        0.2105
     39 C          24.5150   72.2096    2.4923 C.2     1  UNL1        0.2231
     40 C          25.4160   71.0074    2.3695 C.3     1  UNL1        0.0946
     41 N          23.2459   72.0603    2.9182 N.am    1  UNL1       -0.2994
     42 O          24.9323   73.3117    2.2069 O.2     1  UNL1       -0.2751
     43 H          22.9116   71.1784    3.1464 H       1  UNL1        0.1496
     44 C          18.6885   75.3850    2.9348 C.3     1  UNL1        0.1693
     45 O          17.4049   74.8552    2.5971 O.3     1  UNL1       -0.3794
     46 H          16.7828   75.5949    2.6175 H       1  UNL1        0.2105
@<TRIPOS>BOND
     1    29    30    1
     2    29    28    1
     3    29    36    1
     4    30    31    1
     5    30    41    1
     6    31    32    1
     7    31    34    1
     8    32    33    1
     9    32    35    1
    10    33    44    1
    11    33    36    1
    12    44    45    1
    13    39    40    1
    14    39    41   am
    15    39    42    2
    16    41    43    1
    17    28    25    1
    18    34    37    1
    19    35    38    1
    20    45    46    1
    21    15    16   ar
    22    15    20   ar
    23    15     6    1
    24    16    17   ar
    25    16    21    2
    26    17    18   ar
    27    17    23    1
    28    18    19   ar
    29    18    22    2
    30    19    20   ar
    31     6     7    1
    32     6    11    1
    33     7     8    1
    34     7     9    1
    35     8    13    1
    36     9    10    1
    37     9    12    1
    38    10    11    1
    39    10     5    1
    40    12    14    1
    41     5     4    1
    42     4     1    1
    43     1     2    2
    44     1     3    1
    45     1    24    1
    46    24    25    1
    47    25    26    2
    48    25    27    1
@<TRIPOS>MOLECULE
UD1
 46 48 0 0 0
SMALL
GASTEIGER

@<TRIPOS>ATOM
      1 P          21.1248   71.8818   -2.1612 P.3     1  UNL1        0.2189
      2 O          21.0506   73.3575   -2.2362 O.2     1  UNL1       -0.5170
      3 O          21.5486   71.2920   -3.5982 O.3     1  UNL1       -0.4371
      4 O          19.6853   71.2931   -1.7440 O.3     1  UNL1       -0.3112
      5 C          19.4176   70.1958   -2.6184 C.3     1  UNL1        0.1811
      6 C          17.4497   70.4477   -5.6169 C.3     1  UNL1        0.2383
      7 C          17.2109   69.0011   -5.1162 C.3     1  UNL1        0.1895
      8 O          15.9064   68.5447   -5.4756 O.3     1  UNL1       -0.3779
      9 C          17.3363   69.1637   -3.5790 C.3     1  UNL1        0.1713
     10 C          18.1348   70.4701   -3.4046 C.3     1  UNL1        0.1764
     11 O          18.4607   70.9531   -4.7191 O.3     1  UNL1       -0.3308
     12 O          16.0432   69.2764   -2.9807 O.3     1  UNL1       -0.3794
     13 H          15.8220   67.6427   -5.1369 H       1  UNL1        0.2106
     14 H          15.5730   68.4548   -3.1751 H       1  UNL1        0.2105
     15 N          17.9386   70.4459   -6.9962 N.ar    1  UNL1       -0.2551
     16 C          17.0608   70.4255   -8.0142 C.ar    1  UNL1        0.3323
     17 N          17.4820   70.4273   -9.2928 N.ar    1  UNL1       -0.2743
     18 C          18.8006   70.4404   -9.5738 C.ar    1  UNL1        0.2626
     19 C          19.7357   70.4559   -8.5116 C.ar    1  UNL1        0.0795
     20 C          19.2858   70.4591   -7.2385 C.ar    1  UNL1        0.0869
     21 O          15.8682   70.4136   -7.7769 O.2     1  UNL1       -0.2464
     22 O          19.1826   70.4372  -10.7294 O.2     1  UNL1       -0.2670
     23 H          16.8347   70.4172  -10.0147 H       1  UNL1        0.1734
     24 O          22.2184   71.4546   -1.0610 O.3     1  UNL1       -0.2703
     25 P          21.5095   71.5925    0.3770 P.3     1  UNL1        0.2208
     26 O          21.3243   70.2482    0.9664 O.2     1  UNL1       -0.5170
     27 O          20.0755   72.3037    0.2032 O.3     1  UNL1       -0.4371
     28 O          22.4337   72.4820    1.3492 O.3     1  UNL1       -0.2865
     29 C          22.5536   71.7638    2.5785 C.3     1  UNL1        0.2611
     30 C          22.0709   72.6484    3.7294 C.3     1  UNL1        0.1582
     31 C          22.9143   73.9279    3.7657 C.3     1  UNL1        0.1625
     32 C          24.3951   73.5375    3.8201 C.3     1  UNL1        0.1686
     33 C          24.7030   72.5881    2.6604 C.3     1  UNL1        0.1760
     34 O          22.5744   74.6926    4.9238 O.3     1  UNL1       -0.3801
     35 O          25.2030   74.7105    3.7068 O.3     1  UNL1       -0.3794
     36 O          23.9175   71.4033    2.7856 O.3     1  UNL1       -0.3263
     37 H          23.1267   75.4863    4.9065 H       1  UNL1        0.2105
     38 H          26.1252   74.4197    3.7447 H       1  UNL1        0.2105
     39 C          20.3334   74.1688    2.9523 C.2     1  UNL1        0.2231
     40 C          18.8839   74.5248    2.7417 C.3     1  UNL1        0.0946
     41 N          20.6630   72.9946    3.5240 N.am    1  UNL1       -0.2994
     42 O          21.2034   74.9398    2.6077 O.2     1  UNL1       -0.2751
     43 H          19.9669   72.3774    3.8002 H       1  UNL1        0.1496
     44 C          26.1874   72.2177    2.6865 C.3     1  UNL1        0.1693
     45 O          26.3396   70.8351    2.3589 O.3     1  UNL1       -0.3794
     46 H          27.2868   70.6436    2.3869 H       1  UNL1        0.2105
@<TRIPOS>BOND
     1    29    30    1
     2    29    28    1
     3    29    36    1
     4    30    31    1
     5    30    41    1
     6    31    32    1
     7    31    34    1
     8    32    33    1
     9    32    35    1
    10    33    44    1
    11    33    36    1
    12    44    45    1
    13    39    40    1
    14    39    41   am
    15    39    42    2
    16    41    43    1
    17    28    25    1
    18    34    37    1
    19    35    38    1
    20    45    46    1
    21    15    16   ar
    22    15    20   ar
    23    15     6    1
    24    16    17   ar
    25    16    21    2
    26    17    18   ar
    27    17    23    1
    28    18    19   ar
    29    18    22    2
    30    19    20   ar
    31     6     7    1
    32     6    11    1
    33     7     8    1
    34     7     9    1
    35     8    13    1
    36     9    10    1
    37     9    12    1
    38    10    11    1
    39    10     5    1
    40    12    14    1
    41     5     4    1
    42     4     1    1
    43     1     2    2
    44     1     3    1
    45     1    24    1
    46    24    25    1
    47    25    26    2
    48    25    27    1
@<TRIPOS>MOLECULE
UD1
 46 48 0 0 0
SMALL
GASTEIGER

@<TRIPOS>ATOM
      1 P          20.9387   71.5447   -1.8109 P.3     1  UNL1        0.2189
      2 O          20.6885   70.7172   -0.6103 O.2     1  UNL1       -0.5170
      3 O          20.5612   73.0776   -1.4943 O.3     1  UNL1       -0.4371
      4 O          20.0313   71.0102   -3.0290 O.3     1  UNL1       -0.3112
      5 C          18.9278   70.3135   -2.4483 C.3     1  UNL1        0.1811
      6 C          17.1644   70.4523   -5.5786 C.3     1  UNL1        0.2383
      7 C          16.9972   68.9872   -5.1036 C.3     1  UNL1        0.1895
      8 O          15.7585   68.4408   -5.5576 O.3     1  UNL1       -0.3779
      9 C          17.0010   69.1428   -3.5605 C.3     1  UNL1        0.1713
     10 C          17.6873   70.5018   -3.3229 C.3     1  UNL1        0.1764
     11 O          18.0694   71.0206   -4.6083 O.3     1  UNL1       -0.3308
     12 O          15.6640   69.1551   -3.0556 O.3     1  UNL1       -0.3794
     13 H          15.7165   67.5317   -5.2302 H       1  UNL1        0.2106
     14 H          15.2701   68.3035   -3.2873 H       1  UNL1        0.2105
     15 N          17.7488   70.5001   -6.9194 N.ar    1  UNL1       -0.2551
     16 C          16.9462   70.4702   -7.9975 C.ar    1  UNL1        0.3323
     17 N          17.4558   70.5168   -9.2426 N.ar    1  UNL1       -0.2743
     18 C          18.7895   70.5854   -9.4287 C.ar    1  UNL1        0.2626
     19 C          19.6463   70.6115   -8.3027 C.ar    1  UNL1        0.0795
     20 C          19.1082   70.5690   -7.0650 C.ar    1  UNL1        0.0869
     21 O          15.7412   70.4085   -7.8458 O.2     1  UNL1       -0.2464
     22 O          19.2516   70.6227  -10.5541 O.2     1  UNL1       -0.2670
     23 H          16.8618   70.4990  -10.0088 H       1  UNL1        0.1734
     24 O          22.4927   71.4464   -2.2162 O.3     1  UNL1       -0.2703
     25 P          22.6264   72.0602   -3.6977 P.3     1  UNL1        0.2208
     26 O          22.1451   71.0708   -4.6867 O.2     1  UNL1       -0.5170
     27 O          24.1691   72.4104   -3.9970 O.3     1  UNL1       -0.4371
     28 O          21.7425   73.4010   -3.8062 O.3     1  UNL1       -0.2865
     29 C          21.9997   73.9638   -5.0940 C.3     1  UNL1        0.2611
     30 C          22.3624   75.4414   -4.9360 C.3     1  UNL1        0.1582
     31 C          21.2033   76.1713   -4.2481 C.3     1  UNL1        0.1625
     32 C          19.9162   75.8962   -5.0328 C.3     1  UNL1        0.1686
     33 C          19.7364   74.3839   -5.1808 C.3     1  UNL1        0.1760
     34 O          21.4656   77.5757   -4.2293 O.3     1  UNL1       -0.3801
     35 O          18.8006   76.4449   -4.3286 O.3     1  UNL1       -0.3794
     36 O          20.8357   73.8365   -5.9078 O.3     1  UNL1       -0.3263
     37 H          20.7134   77.9945   -3.7886 H       1  UNL1        0.2105
     38 H          18.0131   76.2488   -4.8558 H       1  UNL1        0.2105
     39 C          24.7428   75.9003   -4.6965 C.2     1  UNL1        0.2231
     40 C          25.9883   76.0263   -3.8567 C.3     1  UNL1        0.0946
     41 N          23.5725   75.5644   -4.1206 N.am    1  UNL1       -0.2994
     42 O          24.7943   76.1009   -5.8912 O.2     1  UNL1       -0.2751
     43 H          23.5311   75.4036   -3.1645 H       1  UNL1        0.1496
     44 C          18.4364   74.0975   -5.9353 C.3     1  UNL1        0.1693
     45 O          17.3684   73.9344   -5.0000 O.3     1  UNL1       -0.3794
     46 H          16.5701   73.7558   -5.5152 H       1  UNL1        0.2105
@<TRIPOS>BOND
     1    29    30    1
     2    29    28    1
     3    29    36    1
     4    30    31    1
     5    30    41    1
     6    31    32    1
     7    31    34    1
     8    32    33    1
     9    32    35    1
    10    33    44    1
    11    33    36    1
    12    44    45    1
    13    39    40    1
    14    39    41   am
    15    39    42    2
    16    41    43    1
    17    28    25    1
    18    34    37    1
    19    35    38    1
    20    45    46    1
    21    15    16   ar
    22    15    20   ar
    23    15     6    1
    24    16    17   ar
    25    16    21    2
    26    17    18   ar
    27    17    23    1
    28    18    19   ar
    29    18    22    2
    30    19    20   ar
    31     6     7    1
    32     6    11    1
    33     7     8    1
    34     7     9    1
    35     8    13    1
    36     9    10    1
    37     9    12    1
    38    10    11    1
    39    10     5    1
    40    12    14    1
    41     5     4    1
    42     4     1    1
    43     1     2    2
    44     1     3    1
    45     1    24    1
    46    24    25    1
    47    25    26    2
    48    25    27    1
@<TRIPOS>MOLECULE
UD1
 46 48 0 0 0
SMALL
GASTEIGER

@<TRIPOS>ATOM
      1 P          20.7854   71.4185   -2.3339 P.3     1  UNL1        0.2189
      2 O          21.6382   72.6231   -2.2316 O.2     1  UNL1       -0.5170
      3 O          21.5693   70.2736   -3.1508 O.3     1  UNL1       -0.4371
      4 O          19.4228   71.7905   -3.1071 O.3     1  UNL1       -0.3112
      5 C          18.3903   70.9844   -2.5374 C.3     1  UNL1        0.1811
      6 C          16.8904   70.5581   -5.7771 C.3     1  UNL1        0.2383
      7 C          16.8938   69.1367   -5.1609 C.3     1  UNL1        0.1895
      8 O          15.7869   68.3705   -5.6371 O.3     1  UNL1       -0.3779
      9 C          16.7477   69.4380   -3.6466 C.3     1  UNL1        0.1713
     10 C          17.2124   70.9007   -3.5093 C.3     1  UNL1        0.1764
     11 O          17.6222   71.3455   -4.8137 O.3     1  UNL1       -0.3308
     12 O          15.3853   69.2986   -3.2379 O.3     1  UNL1       -0.3794
     13 H          15.8472   67.5008   -5.2182 H       1  UNL1        0.2106
     14 H          15.1366   68.3794   -3.4036 H       1  UNL1        0.2105
     15 N          17.5711   70.5643   -7.0725 N.ar    1  UNL1       -0.2551
     16 C          16.8496   70.4918   -8.2046 C.ar    1  UNL1        0.3323
     17 N          17.4488   70.4994   -9.4101 N.ar    1  UNL1       -0.2743
     18 C          18.7922   70.5712   -9.5007 C.ar    1  UNL1        0.2626
     19 C          19.5642   70.6420   -8.3167 C.ar    1  UNL1        0.0795
     20 C          18.9371   70.6379   -7.1208 C.ar    1  UNL1        0.0869
     21 O          15.6371   70.4267   -8.1393 O.2     1  UNL1       -0.2464
     22 O          19.3352   70.5734  -10.5900 O.2     1  UNL1       -0.2670
     23 H          16.9126   70.4513  -10.2165 H       1  UNL1        0.1734
     24 O          20.4353   70.8818   -0.8580 O.3     1  UNL1       -0.2703
     25 P          21.7398   71.1337    0.0498 P.3     1  UNL1        0.2208
     26 O          22.9484   71.0972   -0.8027 O.2     1  UNL1       -0.5170
     27 O          21.8420   69.9857    1.1740 O.3     1  UNL1       -0.4371
     28 O          21.6293   72.5725    0.7627 O.3     1  UNL1       -0.2865
     29 C          20.5204   72.5060    1.6610 C.3     1  UNL1        0.2611
     30 C          19.8396   73.8744    1.7251 C.3     1  UNL1        0.1582
     31 C          20.8571   74.9188    2.1979 C.3     1  UNL1        0.1625
     32 C          21.4784   74.4373    3.5133 C.3     1  UNL1        0.1686
     33 C          22.0383   73.0274    3.3134 C.3     1  UNL1        0.1760
     34 O          20.1982   76.1695    2.4052 O.3     1  UNL1       -0.3801
     35 O          22.5330   75.3222    3.8958 O.3     1  UNL1       -0.3794
     36 O          20.9827   72.1353    2.9580 O.3     1  UNL1       -0.3263
     37 H          20.8736   76.7954    2.7008 H       1  UNL1        0.2105
     38 H          22.8959   74.9825    4.7261 H       1  UNL1        0.2105
     39 C          20.1002   74.9980   -0.4205 C.2     1  UNL1        0.2231
     40 C          19.5902   75.3727   -1.7887 C.3     1  UNL1        0.0946
     41 N          19.3448   74.2382    0.3957 N.am    1  UNL1       -0.2994
     42 O          21.1906   75.3813   -0.0540 O.2     1  UNL1       -0.2751
     43 H          18.4721   73.9316    0.1028 H       1  UNL1        0.1496
     44 C          22.6902   72.5499    4.6127 C.3     1  UNL1        0.1693
     45 O          21.9312   73.0210    5.7280 O.3     1  UNL1       -0.3794
     46 H          22.3749   72.6992    6.5244 H       1  UNL1        0.2105
@<TRIPOS>BOND
     1    29    30    1
     2    29    28    1
     3    29    36    1
     4    30    31    1
     5    30    41    1
     6    31    32    1
     7    31    34    1
     8    32    33    1
     9    32    35    1
    10    33    44    1
    11    33    36    1
    12    44    45    1
    13    39    40    1
    14    39    41   am
    15    39    42    2
    16    41    43    1
    17    28    25    1
    18    34    37    1
    19    35    38    1
    20    45    46    1
    21    15    16   ar
    22    15    20   ar
    23    15     6    1
    24    16    17   ar
    25    16    21    2
    26    17    18   ar
    27    17    23    1
    28    18    19   ar
    29    18    22    2
    30    19    20   ar
    31     6     7    1
    32     6    11    1
    33     7     8    1
    34     7     9    1
    35     8    13    1
    36     9    10    1
    37     9    12    1
    38    10    11    1
    39    10     5    1
    40    12    14    1
    41     5     4    1
    42     4     1    1
    43     1     2    2
    44     1     3    1
    45     1    24    1
    46    24    25    1
    47    25    26    2
    48    25    27    1
@<TRIPOS>MOLECULE
UD1
 46 48 0 0 0
SMALL
GASTEIGER

@<TRIPOS>ATOM
      1 P          20.1536   71.2321   -1.4376 P.3     1  UNL1        0.2189
      2 O          19.9967   72.6788   -1.1712 O.2     1  UNL1       -0.5170
      3 O          21.3117   71.0108   -2.5342 O.3     1  UNL1       -0.4371
      4 O          18.7660   70.6362   -1.9963 O.3     1  UNL1       -0.3112
      5 C          18.0455   71.7300   -2.5663 C.3     1  UNL1        0.1811
      6 C          16.8497   70.5048   -5.7280 C.3     1  UNL1        0.2383
      7 C          17.2342   69.2290   -4.9376 C.3     1  UNL1        0.1895
      8 O          16.4092   68.1261   -5.3146 O.3     1  UNL1       -0.3779
      9 C          16.9526   69.6557   -3.4735 C.3     1  UNL1        0.1713
     10 C          16.9768   71.1957   -3.5211 C.3     1  UNL1        0.1764
     11 O          17.2913   71.5789   -4.8707 O.3     1  UNL1       -0.3308
     12 O          15.6718   69.1819   -3.0517 O.3     1  UNL1       -0.3794
     13 H          16.6988   67.3672   -4.7894 H       1  UNL1        0.2106
     14 H          15.7011   68.2170   -3.1006 H       1  UNL1        0.2105
     15 N          17.5479   70.5499   -7.0132 N.ar    1  UNL1       -0.2551
     16 C          16.8412   70.5277   -8.1566 C.ar    1  UNL1        0.3323
     17 N          17.4568   70.5720   -9.3529 N.ar    1  UNL1       -0.2743
     18 C          18.8020   70.6303   -9.4232 C.ar    1  UNL1        0.2626
     19 C          19.5586   70.6483   -8.2273 C.ar    1  UNL1        0.0795
     20 C          18.9153   70.6083   -7.0407 C.ar    1  UNL1        0.0869
     21 O          15.6272   70.4752   -8.1097 O.2     1  UNL1       -0.2464
     22 O          19.3599   70.6656  -10.5043 O.2     1  UNL1       -0.2670
     23 H          16.9310   70.5599  -10.1676 H       1  UNL1        0.1734
     24 O          20.5522   70.4755   -0.0746 O.3     1  UNL1       -0.2703
     25 P          21.7344   71.3312    0.6034 P.3     1  UNL1        0.2208
     26 O          22.9349   70.4799    0.7548 O.2     1  UNL1       -0.5170
     27 O          21.2594   71.8503    2.0516 O.3     1  UNL1       -0.4371
     28 O          22.0867   72.5949   -0.3290 O.3     1  UNL1       -0.2865
     29 C          23.5092   72.7275   -0.3271 C.3     1  UNL1        0.2611
     30 C          23.8950   74.0197    0.3950 C.3     1  UNL1        0.1582
     31 C          23.2417   75.2077   -0.3201 C.3     1  UNL1        0.1625
     32 C          23.6176   75.1532   -1.8046 C.3     1  UNL1        0.1686
     33 C          23.2498   73.7763   -2.3616 C.3     1  UNL1        0.1760
     34 O          23.7130   76.4291    0.2521 O.3     1  UNL1       -0.3801
     35 O          22.9021   76.1648   -2.5162 O.3     1  UNL1       -0.3794
     36 O          23.9834   72.7654   -1.6714 O.3     1  UNL1       -0.3263
     37 H          23.2775   77.1481   -0.2262 H       1  UNL1        0.2105
     38 H          23.1672   76.0946   -3.4443 H       1  UNL1        0.2105
     39 C          24.3145   73.8447    2.7883 C.2     1  UNL1        0.2231
     40 C          23.8327   73.7872    4.2155 C.3     1  UNL1        0.0946
     41 N          23.4275   73.9643    1.7816 N.am    1  UNL1       -0.2994
     42 O          25.5009   73.7826    2.5459 O.2     1  UNL1       -0.2751
     43 H          22.4780   74.0138    1.9753 H       1  UNL1        0.1496
     44 C          23.5915   73.7226   -3.8521 C.3     1  UNL1        0.1693
     45 O          24.2619   72.4948   -4.1436 O.3     1  UNL1       -0.3794
     46 H          24.4590   72.5014   -5.0900 H       1  UNL1        0.2105
@<TRIPOS>BOND
     1    29    30    1
     2    29    28    1
     3    29    36    1
     4    30    31    1
     5    30    41    1
     6    31    32    1
     7    31    34    1
     8    32    33    1
     9    32    35    1
    10    33    44    1
    11    33    36    1
    12    44    45    1
    13    39    40    1
    14    39    41   am
    15    39    42    2
    16    41    43    1
    17    28    25    1
    18    34    37    1
    19    35    38    1
    20    45    46    1
    21    15    16   ar
    22    15    20   ar
    23    15     6    1
    24    16    17   ar
    25    16    21    2
    26    17    18   ar
    27    17    23    1
    28    18    19   ar
    29    18    22    2
    30    19    20   ar
    31     6     7    1
    32     6    11    1
    33     7     8    1
    34     7     9    1
    35     8    13    1
    36     9    10    1
    37     9    12    1
    38    10    11    1
    39    10     5    1
    40    12    14    1
    41     5     4    1
    42     4     1    1
    43     1     2    2
    44     1     3    1
    45     1    24    1
    46    24    25    1
    47    25    26    2
    48    25    27    1
@<TRIPOS>MOLECULE
UD1
 46 48 0 0 0
SMALL
GASTEIGER

@<TRIPOS>ATOM
      1 P          21.7511   72.5222   -6.4142 P.3     1  UNL1        0.2189
      2 O          20.8827   73.5479   -7.0326 O.2     1  UNL1       -0.5170
      3 O          23.2748   72.7586   -6.8778 O.3     1  UNL1       -0.4371
      4 O          21.2695   71.0588   -6.8827 O.3     1  UNL1       -0.3112
      5 C          20.5803   71.2271   -8.1225 C.3     1  UNL1        0.1811
      6 C          17.3926   70.0890   -6.9098 C.3     1  UNL1        0.2383
      7 C          17.0432   71.1414   -7.9917 C.3     1  UNL1        0.1895
      8 O          15.8054   70.8262   -8.6304 O.3     1  UNL1       -0.3779
      9 C          18.2287   70.9974   -8.9811 C.3     1  UNL1        0.1713
     10 C          19.3383   70.3348   -8.1418 C.3     1  UNL1        0.1764
     11 O          18.8298   70.1756   -6.8064 O.3     1  UNL1       -0.3308
     12 O          17.8621   70.1652  -10.0837 O.3     1  UNL1       -0.3794
     13 H          15.6463   71.5165   -9.2890 H       1  UNL1        0.2106
     14 H          17.1267   70.6037  -10.5321 H       1  UNL1        0.2105
     15 N          16.7620   70.4271   -5.6334 N.ar    1  UNL1       -0.2551
     16 C          16.4086   69.4465   -4.7843 C.ar    1  UNL1        0.3323
     17 N          15.8305   69.7285   -3.6017 N.ar    1  UNL1       -0.2743
     18 C          15.5869   71.0078   -3.2524 C.ar    1  UNL1        0.2626
     19 C          15.9484   72.0496   -4.1394 C.ar    1  UNL1        0.0795
     20 C          16.5318   71.7389   -5.3169 C.ar    1  UNL1        0.0869
     21 O          16.6218   68.2878   -5.0852 O.2     1  UNL1       -0.2464
     22 O          15.0599   71.2637   -2.1855 O.2     1  UNL1       -0.2670
     23 H          15.5865   69.0089   -2.9995 H       1  UNL1        0.1734
     24 O          21.6535   72.6315   -4.8119 O.3     1  UNL1       -0.2703
     25 P          22.9300   73.4819   -4.3254 P.3     1  UNL1        0.2208
     26 O          23.2350   74.5292   -5.3250 O.2     1  UNL1       -0.5170
     27 O          24.1995   72.5040   -4.1695 O.3     1  UNL1       -0.4371
     28 O          22.6083   74.1714   -2.9071 O.3     1  UNL1       -0.2865
     29 C          23.0314   73.2555   -1.8955 C.3     1  UNL1        0.2611
     30 C          21.8505   72.9368   -0.9769 C.3     1  UNL1        0.1582
     31 C          21.3385   74.2380   -0.3489 C.3     1  UNL1        0.1625
     32 C          22.5145   74.9527    0.3251 C.3     1  UNL1        0.1686
     33 C          23.6443   75.1221   -0.6928 C.3     1  UNL1        0.1760
     34 O          20.3353   73.9381    0.6233 O.3     1  UNL1       -0.3801
     35 O          22.0912   76.2361    0.7893 O.3     1  UNL1       -0.3794
     36 O          24.0882   73.8410   -1.1381 O.3     1  UNL1       -0.3263
     37 H          20.0420   74.7828    0.9917 H       1  UNL1        0.2105
     38 H          22.8604   76.6509    1.2050 H       1  UNL1        0.2105
     39 C          20.2615   71.1318   -1.3659 C.2     1  UNL1        0.2231
     40 C          19.1585   70.4897   -2.1680 C.3     1  UNL1        0.0946
     41 N          20.7786   72.3129   -1.7555 N.am    1  UNL1       -0.2994
     42 O          20.6842   70.5846   -0.3698 O.2     1  UNL1       -0.2751
     43 H          20.4407   72.7509   -2.5527 H       1  UNL1        0.1496
     44 C          24.8116   75.8642   -0.0386 C.3     1  UNL1        0.1693
     45 O          24.6577   77.2700   -0.2436 O.3     1  UNL1       -0.3794
     46 H          25.4119   77.6992    0.1827 H       1  UNL1        0.2105
@<TRIPOS>BOND
     1    29    30    1
     2    29    28    1
     3    29    36    1
     4    30    31    1
     5    30    41    1
     6    31    32    1
     7    31    34    1
     8    32    33    1
     9    32    35    1
    10    33    44    1
    11    33    36    1
    12    44    45    1
    13    39    40    1
    14    39    41   am
    15    39    42    2
    16    41    43    1
    17    28    25    1
    18    34    37    1
    19    35    38    1
    20    45    46    1
    21    15    16   ar
    22    15    20   ar
    23    15     6    1
    24    16    17   ar
    25    16    21    2
    26    17    18   ar
    27    17    23    1
    28    18    19   ar
    29    18    22    2
    30    19    20   ar
    31     6     7    1
    32     6    11    1
    33     7     8    1
    34     7     9    1
    35     8    13    1
    36     9    10    1
    37     9    12    1
    38    10    11    1
    39    10     5    1
    40    12    14    1
    41     5     4    1
    42     4     1    1
    43     1     2    2
    44     1     3    1
    45     1    24    1
    46    24    25    1
    47    25    26    2
    48    25    27    1
@<TRIPOS>MOLECULE
UD1
 46 48 0 0 0
SMALL
GASTEIGER

@<TRIPOS>ATOM
      1 P          22.6401   73.0212   -3.6058 P.3     1  UNL1        0.2189
      2 O          22.4584   74.4622   -3.8871 O.2     1  UNL1       -0.5170
      3 O          23.9059   72.4683   -4.4333 O.3     1  UNL1       -0.4371
      4 O          21.3174   72.2174   -4.0498 O.3     1  UNL1       -0.3112
      5 C          20.3186   72.4880   -3.0651 C.3     1  UNL1        0.1811
      6 C          18.0634   71.2741   -5.5886 C.3     1  UNL1        0.2383
      7 C          18.3724   70.0328   -4.7145 C.3     1  UNL1        0.1895
      8 O          17.2612   69.1362   -4.6890 O.3     1  UNL1       -0.3779
      9 C          18.6039   70.6671   -3.3184 C.3     1  UNL1        0.1713
     10 C          18.9395   72.1391   -3.6269 C.3     1  UNL1        0.1764
     11 O          18.9419   72.2885   -5.0569 O.3     1  UNL1       -0.3308
     12 O          17.4197   70.5732   -2.5236 O.3     1  UNL1       -0.3794
     13 H          17.5173   68.3886   -4.1314 H       1  UNL1        0.2106
     14 H          17.2294   69.6318   -2.4163 H       1  UNL1        0.2105
     15 N          18.3718   71.0093   -6.9943 N.ar    1  UNL1       -0.2551
     16 C          17.3931   70.6184   -7.8290 C.ar    1  UNL1        0.3323
     17 N          17.6472   70.3717   -9.1278 N.ar    1  UNL1       -0.2743
     18 C          18.8982   70.5050   -9.6127 C.ar    1  UNL1        0.2626
     19 C          19.9391   70.9101   -8.7437 C.ar    1  UNL1        0.0795
     20 C          19.6554   71.1562   -7.4466 C.ar    1  UNL1        0.0869
     21 O          16.2597   70.4936   -7.4066 O.2     1  UNL1       -0.2464
     22 O          19.1299   70.2776  -10.7857 O.2     1  UNL1       -0.2670
     23 H          16.9282   70.0951   -9.7167 H       1  UNL1        0.1734
     24 O          22.8933   72.8095   -2.0310 O.3     1  UNL1       -0.2703
     25 P          23.4452   74.2077   -1.4568 P.3     1  UNL1        0.2208
     26 O          22.3743   75.2262   -1.5255 O.2     1  UNL1       -0.5170
     27 O          24.7025   74.6918   -2.3382 O.3     1  UNL1       -0.4371
     28 O          23.9062   74.0164    0.0733 O.3     1  UNL1       -0.2865
     29 C          22.7839   74.3553    0.8899 C.3     1  UNL1        0.2611
     30 C          23.2662   74.6638    2.3084 C.3     1  UNL1        0.1582
     31 C          23.9922   73.4358    2.8692 C.3     1  UNL1        0.1625
     32 C          23.0673   72.2204    2.7449 C.3     1  UNL1        0.1686
     33 C          22.6024   72.0944    1.2925 C.3     1  UNL1        0.1760
     34 O          24.3158   73.6569    4.2431 O.3     1  UNL1       -0.3801
     35 O          23.7760   71.0396    3.1254 O.3     1  UNL1       -0.3794
     36 O          21.8704   73.2607    0.9177 O.3     1  UNL1       -0.3263
     37 H          24.7702   72.8620    4.5545 H       1  UNL1        0.2105
     38 H          23.1585   70.3003    3.0318 H       1  UNL1        0.2105
     39 C          25.5138   75.5985    2.2135 C.2     1  UNL1        0.2231
     40 C          26.4583   76.7729    2.1812 C.3     1  UNL1        0.0946
     41 N          24.1842   75.8043    2.2765 N.am    1  UNL1       -0.2994
     42 O          25.9509   74.4679    2.1833 O.2     1  UNL1       -0.2751
     43 H          23.8341   76.7090    2.3009 H       1  UNL1        0.1496
     44 C          21.7036   70.8642    1.1509 C.3     1  UNL1        0.1693
     45 O          21.4377   70.6248   -0.2326 O.3     1  UNL1       -0.3794
     46 H          20.8698   69.8437   -0.2773 H       1  UNL1        0.2105
@<TRIPOS>BOND
     1    29    30    1
     2    29    28    1
     3    29    36    1
     4    30    31    1
     5    30    41    1
     6    31    32    1
     7    31    34    1
     8    32    33    1
     9    32    35    1
    10    33    44    1
    11    33    36    1
    12    44    45    1
    13    39    40    1
    14    39    41   am
    15    39    42    2
    16    41    43    1
    17    28    25    1
    18    34    37    1
    19    35    38    1
    20    45    46    1
    21    15    16   ar
    22    15    20   ar
    23    15     6    1
    24    16    17   ar
    25    16    21    2
    26    17    18   ar
    27    17    23    1
    28    18    19   ar
    29    18    22    2
    30    19    20   ar
    31     6     7    1
    32     6    11    1
    33     7     8    1
    34     7     9    1
    35     8    13    1
    36     9    10    1
    37     9    12    1
    38    10    11    1
    39    10     5    1
    40    12    14    1
    41     5     4    1
    42     4     1    1
    43     1     2    2
    44     1     3    1
    45     1    24    1
    46    24    25    1
    47    25    26    2
    48    25    27    1
@<TRIPOS>MOLECULE
UD1
 46 48 0 0 0
SMALL
GASTEIGER

@<TRIPOS>ATOM
      1 P          23.0337   72.5407   -3.4503 P.3     1  UNL1        0.2189
      2 O          22.7276   71.0957   -3.3660 O.2     1  UNL1       -0.5170
      3 O          24.1884   72.7816   -4.5463 O.3     1  UNL1       -0.4371
      4 O          23.5397   73.0662   -2.0148 O.3     1  UNL1       -0.3112
      5 C          22.5123   72.7521   -1.0735 C.3     1  UNL1        0.1811
      6 C          24.4439   71.7325    1.7825 C.3     1  UNL1        0.2383
      7 C          23.0407   72.0513    2.3567 C.3     1  UNL1        0.1895
      8 O          22.7563   71.2356    3.4937 O.3     1  UNL1       -0.3779
      9 C          22.1125   71.6877    1.1687 C.3     1  UNL1        0.1713
     10 C          23.0409   71.7357   -0.0602 C.3     1  UNL1        0.1764
     11 O          24.3428   72.1362    0.4003 O.3     1  UNL1       -0.3308
     12 O          21.5683   70.3775    1.3417 O.3     1  UNL1       -0.3794
     13 H          21.8735   71.4826    3.8020 H       1  UNL1        0.2106
     14 H          21.0481   70.3965    2.1560 H       1  UNL1        0.2105
     15 N          25.4758   72.5076    2.4724 N.ar    1  UNL1       -0.2551
     16 C          26.6716   71.9480    2.7258 C.ar    1  UNL1        0.3323
     17 N          27.6406   72.6386    3.3553 N.ar    1  UNL1       -0.2743
     18 C          27.4218   73.9084    3.7522 C.ar    1  UNL1        0.2626
     19 C          26.1654   74.5078    3.4971 C.ar    1  UNL1        0.0795
     20 C          25.2130   73.7941    2.8592 C.ar    1  UNL1        0.0869
     21 O          26.8842   70.8036    2.3740 O.2     1  UNL1       -0.2464
     22 O          28.2955   74.5322    4.3257 O.2     1  UNL1       -0.2670
     23 H          28.4989   72.2208    3.5257 H       1  UNL1        0.1734
     24 O          21.7085   73.3459   -3.8797 O.3     1  UNL1       -0.2703
     25 P          21.3316   72.8613   -5.3671 P.3     1  UNL1        0.2208
     26 O          22.2508   71.7783   -5.7807 O.2     1  UNL1       -0.5170
     27 O          21.4692   74.0997   -6.3868 O.3     1  UNL1       -0.4371
     28 O          19.8171   72.3168   -5.3878 O.3     1  UNL1       -0.2865
     29 C          19.8899   70.8924   -5.4715 C.3     1  UNL1        0.2611
     30 C          18.8672   70.3937   -6.4939 C.3     1  UNL1        0.1582
     31 C          17.4663   70.8393   -6.0600 C.3     1  UNL1        0.1625
     32 C          17.2283   70.3742   -4.6195 C.3     1  UNL1        0.1686
     33 C          18.3732   70.8771   -3.7377 C.3     1  UNL1        0.1760
     34 O          16.4891   70.2549   -6.9231 O.3     1  UNL1       -0.3801
     35 O          15.9892   70.9042   -4.1446 O.3     1  UNL1       -0.3794
     36 O          19.6092   70.3276   -4.1926 O.3     1  UNL1       -0.3263
     37 H          15.6251   70.5613   -6.6148 H       1  UNL1        0.2105
     38 H          15.8795   70.5883   -3.2365 H       1  UNL1        0.2105
     39 C          19.0851   70.1868   -8.9114 C.2     1  UNL1        0.2231
     40 C          19.4031   70.7670  -10.2659 C.3     1  UNL1        0.0946
     41 N          19.1755   70.9569   -7.8100 N.am    1  UNL1       -0.2994
     42 O          18.7485   69.0262   -8.8128 O.2     1  UNL1       -0.2751
     43 H          19.4451   71.8858   -7.8886 H       1  UNL1        0.1496
     44 C          18.1283   70.4453   -2.2904 C.3     1  UNL1        0.1693
     45 O          19.3768   70.3600   -1.6005 O.3     1  UNL1       -0.3794
     46 H          19.1780   70.0856   -0.6951 H       1  UNL1        0.2105
@<TRIPOS>BOND
     1    29    30    1
     2    29    28    1
     3    29    36    1
     4    30    31    1
     5    30    41    1
     6    31    32    1
     7    31    34    1
     8    32    33    1
     9    32    35    1
    10    33    44    1
    11    33    36    1
    12    44    45    1
    13    39    40    1
    14    39    41   am
    15    39    42    2
    16    41    43    1
    17    28    25    1
    18    34    37    1
    19    35    38    1
    20    45    46    1
    21    15    16   ar
    22    15    20   ar
    23    15     6    1
    24    16    17   ar
    25    16    21    2
    26    17    18   ar
    27    17    23    1
    28    18    19   ar
    29    18    22    2
    30    19    20   ar
    31     6     7    1
    32     6    11    1
    33     7     8    1
    34     7     9    1
    35     8    13    1
    36     9    10    1
    37     9    12    1
    38    10    11    1
    39    10     5    1
    40    12    14    1
    41     5     4    1
    42     4     1    1
    43     1     2    2
    44     1     3    1
    45     1    24    1
    46    24    25    1
    47    25    26    2
    48    25    27    1
@<TRIPOS>MOLECULE
UD1
 46 48 0 0 0
SMALL
GASTEIGER

@<TRIPOS>ATOM
      1 P          20.7098   71.9642   -1.8540 P.3     1  UNL1        0.2189
      2 O          20.6919   72.9706   -2.9383 O.2     1  UNL1       -0.5170
      3 O          21.6788   70.7466   -2.2677 O.3     1  UNL1       -0.4371
      4 O          19.2185   71.4052   -1.6167 O.3     1  UNL1       -0.3112
      5 C          19.0441   70.3009   -2.5058 C.3     1  UNL1        0.1811
      6 C          17.2379   70.4666   -5.6102 C.3     1  UNL1        0.2383
      7 C          17.0182   69.0168   -5.1102 C.3     1  UNL1        0.1895
      8 O          15.7508   68.5156   -5.5366 O.3     1  UNL1       -0.3779
      9 C          17.0532   69.1948   -3.5700 C.3     1  UNL1        0.1713
     10 C          17.7985   70.5276   -3.3639 C.3     1  UNL1        0.1764
     11 O          18.1810   71.0112   -4.6628 O.3     1  UNL1       -0.3308
     12 O          15.7261   69.2699   -3.0447 O.3     1  UNL1       -0.3794
     13 H          15.6768   67.6139   -5.1947 H       1  UNL1        0.2106
     14 H          15.2938   68.4320   -3.2572 H       1  UNL1        0.2105
     15 N          17.8021   70.4705   -6.9604 N.ar    1  UNL1       -0.2551
     16 C          16.9818   70.4550   -8.0254 C.ar    1  UNL1        0.3323
     17 N          17.4729   70.4621   -9.2788 N.ar    1  UNL1       -0.2743
     18 C          18.8050   70.4756   -9.4866 C.ar    1  UNL1        0.2626
     19 C          19.6801   70.4859   -8.3744 C.ar    1  UNL1        0.0795
     20 C          19.1606   70.4839   -7.1280 C.ar    1  UNL1        0.0869
     21 O          15.7780   70.4428   -7.8542 O.2     1  UNL1       -0.2464
     22 O          19.2501   70.4772  -10.6193 O.2     1  UNL1       -0.2670
     23 H          16.8664   70.4556  -10.0353 H       1  UNL1        0.1734
     24 O          21.2496   72.6444   -0.4994 O.3     1  UNL1       -0.2703
     25 P          22.1918   71.5580    0.2228 P.3     1  UNL1        0.2208
     26 O          23.2299   71.0975   -0.7254 O.2     1  UNL1       -0.5170
     27 O          21.3008   70.3023    0.6935 O.3     1  UNL1       -0.4371
     28 O          22.8961   72.2257    1.5068 O.3     1  UNL1       -0.2865
     29 C          22.4563   73.5839    1.5613 C.3     1  UNL1        0.2611
     30 C          23.5719   74.4969    1.0496 C.3     1  UNL1        0.1582
     31 C          24.8203   74.2971    1.9164 C.3     1  UNL1        0.1625
     32 C          24.4344   74.4996    3.3855 C.3     1  UNL1        0.1686
     33 C          23.2555   73.5839    3.7219 C.3     1  UNL1        0.1760
     34 O          25.8187   75.2491    1.5446 O.3     1  UNL1       -0.3801
     35 O          25.5471   74.1748    4.2210 O.3     1  UNL1       -0.3794
     36 O          22.1336   73.9239    2.9081 O.3     1  UNL1       -0.3263
     37 H          26.5843   75.0875    2.1131 H       1  UNL1        0.2105
     38 H          25.2611   74.3150    5.1348 H       1  UNL1        0.2105
     39 C          23.6522   75.0567   -1.3198 C.2     1  UNL1        0.2231
     40 C          23.9706   74.7091   -2.7517 C.3     1  UNL1        0.0946
     41 N          23.8815   74.1599   -0.3414 N.am    1  UNL1       -0.2994
     42 O          23.1890   76.1439   -1.0485 O.2     1  UNL1       -0.2751
     43 H          24.2520   73.2897   -0.5583 H       1  UNL1        0.1496
     44 C          22.8831   73.7547    5.1961 C.3     1  UNL1        0.1693
     45 O          22.1784   72.5962    5.6471 O.3     1  UNL1       -0.3794
     46 H          21.9628   72.7445    6.5777 H       1  UNL1        0.2105
@<TRIPOS>BOND
     1    29    30    1
     2    29    28    1
     3    29    36    1
     4    30    31    1
     5    30    41    1
     6    31    32    1
     7    31    34    1
     8    32    33    1
     9    32    35    1
    10    33    44    1
    11    33    36    1
    12    44    45    1
    13    39    40    1
    14    39    41   am
    15    39    42    2
    16    41    43    1
    17    28    25    1
    18    34    37    1
    19    35    38    1
    20    45    46    1
    21    15    16   ar
    22    15    20   ar
    23    15     6    1
    24    16    17   ar
    25    16    21    2
    26    17    18   ar
    27    17    23    1
    28    18    19   ar
    29    18    22    2
    30    19    20   ar
    31     6     7    1
    32     6    11    1
    33     7     8    1
    34     7     9    1
    35     8    13    1
    36     9    10    1
    37     9    12    1
    38    10    11    1
    39    10     5    1
    40    12    14    1
    41     5     4    1
    42     4     1    1
    43     1     2    2
    44     1     3    1
    45     1    24    1
    46    24    25    1
    47    25    26    2
    48    25    27    1
@<TRIPOS>MOLECULE
UD1
 46 48 0 0 0
SMALL
GASTEIGER

@<TRIPOS>ATOM
      1 P          16.2175   69.6240   -2.6597 P.3     1  UNL1        0.2189
      2 O          15.9338   69.1880   -4.0447 O.2     1  UNL1       -0.5170
      3 O          16.9406   68.4292   -1.8584 O.3     1  UNL1       -0.4371
      4 O          14.8365   70.0036   -1.9237 O.3     1  UNL1       -0.3112
      5 C          14.7216   69.1427   -0.7897 C.3     1  UNL1        0.1811
      6 C          12.0033   67.9652    1.2478 C.3     1  UNL1        0.2383
      7 C          12.2672   69.4074    1.7483 C.3     1  UNL1        0.1895
      8 O          11.0640   70.0114    2.2245 O.3     1  UNL1       -0.3779
      9 C          12.7683   70.1123    0.4610 C.3     1  UNL1        0.1713
     10 C          13.2450   68.9552   -0.4380 C.3     1  UNL1        0.1764
     11 O          13.0699   67.7354    0.3027 O.3     1  UNL1       -0.3308
     12 O          11.7026   70.8324   -0.1623 O.3     1  UNL1       -0.3794
     13 H          11.2959   70.9025    2.5204 H       1  UNL1        0.2106
     14 H          11.4092   71.5007    0.4712 H       1  UNL1        0.2105
     15 N          12.0787   67.0097    2.3536 N.ar    1  UNL1       -0.2551
     16 C          13.2766   66.5563    2.7619 C.ar    1  UNL1        0.3323
     17 N          13.3762   65.6800    3.7790 N.ar    1  UNL1       -0.2743
     18 C          12.2670   65.2335    4.4021 C.ar    1  UNL1        0.2626
     19 C          10.9991   65.6980    3.9785 C.ar    1  UNL1        0.0795
     20 C          10.9284   66.5808    2.9593 C.ar    1  UNL1        0.0869
     21 O          14.2861   66.9498    2.2099 O.2     1  UNL1       -0.2464
     22 O          12.3556   64.4375    5.3187 O.2     1  UNL1       -0.2670
     23 H          14.2487   65.3672    4.0635 H       1  UNL1        0.1734
     24 O          17.1812   70.9120   -2.6893 O.3     1  UNL1       -0.2703
     25 P          18.6758   70.3688   -2.9356 P.3     1  UNL1        0.2208
     26 O          18.6179   68.9862   -3.4590 O.2     1  UNL1       -0.5170
     27 O          19.4882   70.3821   -1.5457 O.3     1  UNL1       -0.4371
     28 O          19.4232   71.3152   -4.0015 O.3     1  UNL1       -0.2865
     29 C          20.4970   70.5509   -4.5529 C.3     1  UNL1        0.2611
     30 C          21.8066   71.3225   -4.3806 C.3     1  UNL1        0.1582
     31 C          21.6872   72.6769   -5.0883 C.3     1  UNL1        0.1625
     32 C          21.2588   72.4355   -6.5396 C.3     1  UNL1        0.1686
     33 C          19.9886   71.5824   -6.5489 C.3     1  UNL1        0.1760
     34 O          22.9508   73.3434   -5.0631 O.3     1  UNL1       -0.3801
     35 O          20.9995   73.6883   -7.1760 O.3     1  UNL1       -0.3794
     36 O          20.2515   70.3196   -5.9384 O.3     1  UNL1       -0.3263
     37 H          22.8300   74.1885   -5.5174 H       1  UNL1        0.2105
     38 H          20.7328   73.4903   -8.0850 H       1  UNL1        0.2105
     39 C          23.2904   71.2919   -2.4488 C.2     1  UNL1        0.2231
     40 C          23.5569   71.5103   -0.9813 C.3     1  UNL1        0.0946
     41 N          22.0661   71.5350   -2.9552 N.am    1  UNL1       -0.2994
     42 O          24.1781   70.8966   -3.1739 O.2     1  UNL1       -0.2751
     43 H          21.3555   71.8511   -2.3750 H       1  UNL1        0.1496
     44 C          19.5339   71.3627   -7.9932 C.3     1  UNL1        0.1693
     45 O          20.6207   71.6312   -8.8813 O.3     1  UNL1       -0.3794
     46 H          20.2927   71.4816   -9.7783 H       1  UNL1        0.2105
@<TRIPOS>BOND
     1    29    30    1
     2    29    28    1
     3    29    36    1
     4    30    31    1
     5    30    41    1
     6    31    32    1
     7    31    34    1
     8    32    33    1
     9    32    35    1
    10    33    44    1
    11    33    36    1
    12    44    45    1
    13    39    40    1
    14    39    41   am
    15    39    42    2
    16    41    43    1
    17    28    25    1
    18    34    37    1
    19    35    38    1
    20    45    46    1
    21    15    16   ar
    22    15    20   ar
    23    15     6    1
    24    16    17   ar
    25    16    21    2
    26    17    18   ar
    27    17    23    1
    28    18    19   ar
    29    18    22    2
    30    19    20   ar
    31     6     7    1
    32     6    11    1
    33     7     8    1
    34     7     9    1
    35     8    13    1
    36     9    10    1
    37     9    12    1
    38    10    11    1
    39    10     5    1
    40    12    14    1
    41     5     4    1
    42     4     1    1
    43     1     2    2
    44     1     3    1
    45     1    24    1
    46    24    25    1
    47    25    26    2
    48    25    27    1
@<TRIPOS>MOLECULE
UD1
 46 48 0 0 0
SMALL
GASTEIGER

@<TRIPOS>ATOM
      1 P          21.1470   71.1063   -3.7377 P.3     1  UNL1        0.2189
      2 O          21.4197   71.8840   -4.9663 O.2     1  UNL1       -0.5170
      3 O          20.8013   69.5839   -4.1317 O.3     1  UNL1       -0.4371
      4 O          19.8959   71.7554   -2.9590 O.3     1  UNL1       -0.3112
      5 C          19.0176   70.6814   -2.6191 C.3     1  UNL1        0.1811
      6 C          17.2047   70.5333   -5.7205 C.3     1  UNL1        0.2383
      7 C          17.1058   69.0986   -5.1441 C.3     1  UNL1        0.1895
      8 O          15.8844   68.4725   -5.5384 O.3     1  UNL1       -0.3779
      9 C          17.1255   69.3597   -3.6155 C.3     1  UNL1        0.1713
     10 C          17.7578   70.7587   -3.4828 C.3     1  UNL1        0.1764
     11 O          18.0992   71.2032   -4.8068 O.3     1  UNL1       -0.3308
     12 O          15.7965   69.3523   -3.0895 O.3     1  UNL1       -0.3794
     13 H          15.8852   67.5870   -5.1493 H       1  UNL1        0.2106
     14 H          15.4352   68.4715   -3.2559 H       1  UNL1        0.2105
     15 N          17.7670   70.5127   -7.0713 N.ar    1  UNL1       -0.2551
     16 C          16.9453   70.4686   -8.1344 C.ar    1  UNL1        0.3323
     17 N          17.4346   70.4528   -9.3885 N.ar    1  UNL1       -0.2743
     18 C          18.7663   70.4716   -9.5985 C.ar    1  UNL1        0.2626
     19 C          19.6429   70.5119   -8.4882 C.ar    1  UNL1        0.0795
     20 C          19.1252   70.5325   -7.2413 C.ar    1  UNL1        0.0869
     21 O          15.7419   70.4513   -7.9612 O.2     1  UNL1       -0.2464
     22 O          19.2099   70.4524  -10.7318 O.2     1  UNL1       -0.2670
     23 H          16.8272   70.4258  -10.1438 H       1  UNL1        0.1734
     24 O          22.4441   71.1341   -2.7860 O.3     1  UNL1       -0.2703
     25 P          22.5944   72.6435   -2.2489 P.3     1  UNL1        0.2208
     26 O          21.4357   73.4451   -2.7001 O.2     1  UNL1       -0.5170
     27 O          23.9507   73.2879   -2.8297 O.3     1  UNL1       -0.4371
     28 O          22.6501   72.6390   -0.6404 O.3     1  UNL1       -0.2865
     29 C          22.3285   71.3126   -0.2182 C.3     1  UNL1        0.2611
     30 C          21.1982   71.3702    0.8109 C.3     1  UNL1        0.1582
     31 C          21.6481   72.2232    2.0024 C.3     1  UNL1        0.1625
     32 C          22.9785   71.6715    2.5255 C.3     1  UNL1        0.1686
     33 C          23.9757   71.5941    1.3674 C.3     1  UNL1        0.1760
     34 O          20.6618   72.1623    3.0344 O.3     1  UNL1       -0.3801
     35 O          23.4891   72.5379    3.5405 O.3     1  UNL1       -0.3794
     36 O          23.4813   70.7080    0.3640 O.3     1  UNL1       -0.3263
     37 H          20.9846   72.7115    3.7620 H       1  UNL1        0.2105
     38 H          24.3255   72.1547    3.8406 H       1  UNL1        0.2105
     39 C          19.7607   73.2834    0.3554 C.2     1  UNL1        0.2231
     40 C          18.5367   73.8990   -0.2732 C.3     1  UNL1        0.0946
     41 N          20.0095   71.9688    0.2000 N.am    1  UNL1       -0.2994
     42 O          20.5214   73.9715    1.0019 O.2     1  UNL1       -0.2751
     43 H          19.4008   71.4179   -0.3171 H       1  UNL1        0.1496
     44 C          25.3183   71.0748    1.8860 C.3     1  UNL1        0.1693
     45 O          25.0942   69.9785    2.7748 O.3     1  UNL1       -0.3794
     46 H          25.9630   69.6821    3.0781 H       1  UNL1        0.2105
@<TRIPOS>BOND
     1    29    30    1
     2    29    28    1
     3    29    36    1
     4    30    31    1
     5    30    41    1
     6    31    32    1
     7    31    34    1
     8    32    33    1
     9    32    35    1
    10    33    44    1
    11    33    36    1
    12    44    45    1
    13    39    40    1
    14    39    41   am
    15    39    42    2
    16    41    43    1
    17    28    25    1
    18    34    37    1
    19    35    38    1
    20    45    46    1
    21    15    16   ar
    22    15    20   ar
    23    15     6    1
    24    16    17   ar
    25    16    21    2
    26    17    18   ar
    27    17    23    1
    28    18    19   ar
    29    18    22    2
    30    19    20   ar
    31     6     7    1
    32     6    11    1
    33     7     8    1
    34     7     9    1
    35     8    13    1
    36     9    10    1
    37     9    12    1
    38    10    11    1
    39    10     5    1
    40    12    14    1
    41     5     4    1
    42     4     1    1
    43     1     2    2
    44     1     3    1
    45     1    24    1
    46    24    25    1
    47    25    26    2
    48    25    27    1
@<TRIPOS>MOLECULE
UD1
 46 48 0 0 0
SMALL
GASTEIGER

@<TRIPOS>ATOM
      1 P          20.8095   71.3232   -0.9991 P.3     1  UNL1        0.2189
      2 O          20.9749   70.5920    0.2763 O.2     1  UNL1       -0.5170
      3 O          21.2011   72.8703   -0.7856 O.3     1  UNL1       -0.4371
      4 O          19.2765   71.2204   -1.4811 O.3     1  UNL1       -0.3112
      5 C          19.2493   70.3127   -2.5837 C.3     1  UNL1        0.1811
      6 C          17.3541   70.4802   -5.6345 C.3     1  UNL1        0.2383
      7 C          17.1388   69.0339   -5.1227 C.3     1  UNL1        0.1895
      8 O          15.8559   68.5404   -5.5098 O.3     1  UNL1       -0.3779
      9 C          17.2201   69.2172   -3.5848 C.3     1  UNL1        0.1713
     10 C          17.9808   70.5453   -3.4059 C.3     1  UNL1        0.1764
     11 O          18.3285   71.0214   -4.7172 O.3     1  UNL1       -0.3308
     12 O          15.9096   69.3039   -3.0212 O.3     1  UNL1       -0.3794
     13 H          15.7853   67.6405   -5.1624 H       1  UNL1        0.2106
     14 H          15.4653   68.4684   -3.2177 H       1  UNL1        0.2105
     15 N          17.8785   70.4750   -7.0007 N.ar    1  UNL1       -0.2551
     16 C          17.0279   70.4279   -8.0407 C.ar    1  UNL1        0.3323
     17 N          17.4819   70.4259   -9.3080 N.ar    1  UNL1       -0.2743
     18 C          18.8069   70.4622   -9.5551 C.ar    1  UNL1        0.2626
     19 C          19.7138   70.5059   -8.4695 C.ar    1  UNL1        0.0795
     20 C          19.2310   70.5123   -7.2084 C.ar    1  UNL1        0.0869
     21 O          15.8300   70.3949   -7.8340 O.2     1  UNL1       -0.2464
     22 O          19.2187   70.4556  -10.7004 O.2     1  UNL1       -0.2670
     23 H          16.8539   70.3965  -10.0462 H       1  UNL1        0.1734
     24 O          21.7680   70.6754   -2.1174 O.3     1  UNL1       -0.2703
     25 P          23.1285   71.5347   -2.1179 P.3     1  UNL1        0.2208
     26 O          24.1692   70.8100   -2.8799 O.2     1  UNL1       -0.5170
     27 O          23.6274   71.7520   -0.6026 O.3     1  UNL1       -0.4371
     28 O          22.8605   72.9660   -2.8035 O.3     1  UNL1       -0.2865
     29 C          24.0239   73.2828   -3.5699 C.3     1  UNL1        0.2611
     30 C          24.3748   74.7581   -3.3688 C.3     1  UNL1        0.1582
     31 C          23.1861   75.6204   -3.8081 C.3     1  UNL1        0.1625
     32 C          22.8004   75.2311   -5.2391 C.3     1  UNL1        0.1686
     33 C          22.5653   73.7203   -5.2984 C.3     1  UNL1        0.1760
     34 O          23.5543   77.0003   -3.7664 O.3     1  UNL1       -0.3801
     35 O          21.6050   75.9174   -5.6154 O.3     1  UNL1       -0.3794
     36 O          23.7654   73.0315   -4.9496 O.3     1  UNL1       -0.3263
     37 H          22.7792   77.5049   -4.0492 H       1  UNL1        0.2105
     38 H          21.3983   75.6434   -6.5202 H       1  UNL1        0.2105
     39 C          23.6999   75.4791   -1.1420 C.2     1  UNL1        0.2231
     40 C          23.9978   75.7331    0.3137 C.3     1  UNL1        0.0946
     41 N          24.6636   75.0046   -1.9546 N.am    1  UNL1       -0.2994
     42 O          22.5923   75.7025   -1.5821 O.2     1  UNL1       -0.2751
     43 H          25.5501   74.8259   -1.6026 H       1  UNL1        0.1496
     44 C          22.1478   73.3256   -6.7165 C.3     1  UNL1        0.1693
     45 O          22.9900   72.2706   -7.1852 O.3     1  UNL1       -0.3794
     46 H          22.6943   72.0528   -8.0795 H       1  UNL1        0.2105
@<TRIPOS>BOND
     1    29    30    1
     2    29    28    1
     3    29    36    1
     4    30    31    1
     5    30    41    1
     6    31    32    1
     7    31    34    1
     8    32    33    1
     9    32    35    1
    10    33    44    1
    11    33    36    1
    12    44    45    1
    13    39    40    1
    14    39    41   am
    15    39    42    2
    16    41    43    1
    17    28    25    1
    18    34    37    1
    19    35    38    1
    20    45    46    1
    21    15    16   ar
    22    15    20   ar
    23    15     6    1
    24    16    17   ar
    25    16    21    2
    26    17    18   ar
    27    17    23    1
    28    18    19   ar
    29    18    22    2
    30    19    20   ar
    31     6     7    1
    32     6    11    1
    33     7     8    1
    34     7     9    1
    35     8    13    1
    36     9    10    1
    37     9    12    1
    38    10    11    1
    39    10     5    1
    40    12    14    1
    41     5     4    1
    42     4     1    1
    43     1     2    2
    44     1     3    1
    45     1    24    1
    46    24    25    1
    47    25    26    2
    48    25    27    1
@<TRIPOS>MOLECULE
UD1
 46 48 0 0 0
SMALL
GASTEIGER

@<TRIPOS>ATOM
      1 P          15.7505   70.4847   -2.4773 P.3     1  UNL1        0.2189
      2 O          15.4706   71.5961   -3.4128 O.2     1  UNL1       -0.5170
      3 O          15.8011   69.0970   -3.2923 O.3     1  UNL1       -0.4371
      4 O          14.5859   70.4119   -1.3676 O.3     1  UNL1       -0.3112
      5 C          14.5631   69.0699   -0.8790 C.3     1  UNL1        0.1811
      6 C          11.3581   67.6898   -0.0129 C.3     1  UNL1        0.2383
      7 C          12.3837   66.7182    0.6229 C.3     1  UNL1        0.1895
      8 O          11.8584   66.1265    1.8117 O.3     1  UNL1       -0.3779
      9 C          13.5677   67.6642    0.9522 C.3     1  UNL1        0.1713
     10 C          13.3464   68.8767    0.0274 C.3     1  UNL1        0.1764
     11 O          12.1816   68.6022   -0.7697 O.3     1  UNL1       -0.3308
     12 O          13.5254   68.0596    2.3250 O.3     1  UNL1       -0.3794
     13 H          12.5420   65.5353    2.1561 H       1  UNL1        0.2106
     14 H          13.6087   67.2528    2.8506 H       1  UNL1        0.2105
     15 N          10.4392   66.9703   -0.8958 N.ar    1  UNL1       -0.2551
     16 C           9.2318   67.4940   -1.1703 C.ar    1  UNL1        0.3323
     17 N           8.3680   66.8561   -1.9822 N.ar    1  UNL1       -0.2743
     18 C           8.6995   65.6691   -2.5290 C.ar    1  UNL1        0.2626
     19 C           9.9650   65.1035   -2.2436 C.ar    1  UNL1        0.0795
     20 C          10.8143   65.7672   -1.4303 C.ar    1  UNL1        0.0869
     21 O           8.9183   68.5638   -0.6847 O.2     1  UNL1       -0.2464
     22 O           7.9174   65.0892   -3.2593 O.2     1  UNL1       -0.2670
     23 H           7.5031   67.2507   -2.1731 H       1  UNL1        0.1734
     24 O          17.1657   70.7354   -1.7541 O.3     1  UNL1       -0.2703
     25 P          18.3070   70.3097   -2.8056 P.3     1  UNL1        0.2208
     26 O          18.1807   68.8682   -3.1137 O.2     1  UNL1       -0.5170
     27 O          19.7579   70.5966   -2.1693 O.3     1  UNL1       -0.4371
     28 O          18.1375   71.1645   -4.1588 O.3     1  UNL1       -0.2865
     29 C          18.8943   70.4955   -5.1691 C.3     1  UNL1        0.2611
     30 C          19.8630   71.4878   -5.8147 C.3     1  UNL1        0.1582
     31 C          19.0637   72.6488   -6.4171 C.3     1  UNL1        0.1625
     32 C          17.9969   72.0747   -7.3553 C.3     1  UNL1        0.1686
     33 C          17.1669   71.0401   -6.5924 C.3     1  UNL1        0.1760
     34 O          19.9414   73.5044   -7.1512 O.3     1  UNL1       -0.3801
     35 O          17.1467   73.1277   -7.8136 O.3     1  UNL1       -0.3794
     36 O          18.0084   69.9731   -6.1569 O.3     1  UNL1       -0.3263
     37 H          19.3984   74.2190   -7.5114 H       1  UNL1        0.2105
     38 H          16.4910   72.7231   -8.3991 H       1  UNL1        0.2105
     39 C          22.0790   72.2155   -5.1118 C.2     1  UNL1        0.2231
     40 C          23.0289   72.7440   -4.0675 C.3     1  UNL1        0.0946
     41 N          20.7861   72.0017   -4.8007 N.am    1  UNL1       -0.2994
     42 O          22.4788   71.9820   -6.2325 O.2     1  UNL1       -0.2751
     43 H          20.4659   72.1882   -3.9039 H       1  UNL1        0.1496
     44 C          16.0773   70.4840   -7.5115 C.3     1  UNL1        0.1693
     45 O          16.4847   70.6257   -8.8739 O.3     1  UNL1       -0.3794
     46 H          15.7720   70.2645   -9.4181 H       1  UNL1        0.2105
@<TRIPOS>BOND
     1    29    30    1
     2    29    28    1
     3    29    36    1
     4    30    31    1
     5    30    41    1
     6    31    32    1
     7    31    34    1
     8    32    33    1
     9    32    35    1
    10    33    44    1
    11    33    36    1
    12    44    45    1
    13    39    40    1
    14    39    41   am
    15    39    42    2
    16    41    43    1
    17    28    25    1
    18    34    37    1
    19    35    38    1
    20    45    46    1
    21    15    16   ar
    22    15    20   ar
    23    15     6    1
    24    16    17   ar
    25    16    21    2
    26    17    18   ar
    27    17    23    1
    28    18    19   ar
    29    18    22    2
    30    19    20   ar
    31     6     7    1
    32     6    11    1
    33     7     8    1
    34     7     9    1
    35     8    13    1
    36     9    10    1
    37     9    12    1
    38    10    11    1
    39    10     5    1
    40    12    14    1
    41     5     4    1
    42     4     1    1
    43     1     2    2
    44     1     3    1
    45     1    24    1
    46    24    25    1
    47    25    26    2
    48    25    27    1
@<TRIPOS>MOLECULE
UD1
 46 48 0 0 0
SMALL
GASTEIGER

@<TRIPOS>ATOM
      1 P          23.3015   71.8181   -3.2201 P.3     1  UNL1        0.2189
      2 O          24.1855   70.6333   -3.1604 O.2     1  UNL1       -0.5170
      3 O          23.9725   72.9417   -4.1580 O.3     1  UNL1       -0.4371
      4 O          23.0979   72.4103   -1.7366 O.3     1  UNL1       -0.3112
      5 C          23.7400   71.5048   -0.8377 C.3     1  UNL1        0.1811
      6 C          24.7830   72.7515    2.3693 C.3     1  UNL1        0.2383
      7 C          24.3976   74.0193    1.5666 C.3     1  UNL1        0.1895
      8 O          23.9002   75.0406    2.4320 O.3     1  UNL1       -0.3779
      9 C          23.2762   73.4875    0.6366 C.3     1  UNL1        0.1713
     10 C          23.5090   71.9646    0.6025 C.3     1  UNL1        0.1764
     11 O          24.6759   71.6905    1.3965 O.3     1  UNL1       -0.3308
     12 O          21.9896   73.7915    1.1797 O.3     1  UNL1       -0.3794
     13 H          23.6800   75.7987    1.8731 H       1  UNL1        0.2106
     14 H          21.9286   74.7547    1.2310 H       1  UNL1        0.2105
     15 N          26.1529   72.8527    2.8739 N.ar    1  UNL1       -0.2551
     16 C          26.9688   71.7865    2.8051 C.ar    1  UNL1        0.3323
     17 N          28.2348   71.8521    3.2579 N.ar    1  UNL1       -0.2743
     18 C          28.7043   72.9940    3.7998 C.ar    1  UNL1        0.2626
     19 C          27.8542   74.1223    3.8840 C.ar    1  UNL1        0.0795
     20 C          26.5904   74.0305    3.4173 C.ar    1  UNL1        0.0869
     21 O          26.5599   70.7496    2.3190 O.2     1  UNL1       -0.2464
     22 O          29.8473   73.0530    4.2139 O.2     1  UNL1       -0.2670
     23 H          28.8110   71.0747    3.1960 H       1  UNL1        0.1734
     24 O          21.8740   71.3925   -3.8283 O.3     1  UNL1       -0.2703
     25 P          20.8174   72.5132   -3.3624 P.3     1  UNL1        0.2208
     26 O          21.4040   73.8569   -3.5609 O.2     1  UNL1       -0.5170
     27 O          20.4664   72.3064   -1.8048 O.3     1  UNL1       -0.4371
     28 O          19.4723   72.3807   -4.2363 O.3     1  UNL1       -0.2865
     29 C          19.7122   71.3684   -5.2155 C.3     1  UNL1        0.2611
     30 C          19.3376   71.9046   -6.5983 C.3     1  UNL1        0.1582
     31 C          17.8605   72.3139   -6.5940 C.3     1  UNL1        0.1625
     32 C          17.0241   71.1260   -6.1067 C.3     1  UNL1        0.1686
     33 C          17.5714   70.6505   -4.7593 C.3     1  UNL1        0.1760
     34 O          17.4598   72.6753   -7.9170 O.3     1  UNL1       -0.3801
     35 O          15.6622   71.5306   -5.9551 O.3     1  UNL1       -0.3794
     36 O          18.9232   70.2198   -4.9129 O.3     1  UNL1       -0.3263
     37 H          16.5269   72.9254   -7.8679 H       1  UNL1        0.2105
     38 H          15.1725   70.7549   -5.6469 H       1  UNL1        0.2105
     39 C          21.4851   72.9131   -7.1512 C.2     1  UNL1        0.2231
     40 C          22.3399   74.1116   -7.4756 C.3     1  UNL1        0.0946
     41 N          20.1683   73.0685   -6.9140 N.am    1  UNL1       -0.2994
     42 O          21.9829   71.8085   -7.1030 O.2     1  UNL1       -0.2751
     43 H          19.7697   73.9523   -6.9523 H       1  UNL1        0.1496
     44 C          16.7226   69.4846   -4.2482 C.3     1  UNL1        0.1693
     45 O          16.0573   68.8609   -5.3485 O.3     1  UNL1       -0.3794
     46 H          15.5347   68.1340   -4.9838 H       1  UNL1        0.2105
@<TRIPOS>BOND
     1    29    30    1
     2    29    28    1
     3    29    36    1
     4    30    31    1
     5    30    41    1
     6    31    32    1
     7    31    34    1
     8    32    33    1
     9    32    35    1
    10    33    44    1
    11    33    36    1
    12    44    45    1
    13    39    40    1
    14    39    41   am
    15    39    42    2
    16    41    43    1
    17    28    25    1
    18    34    37    1
    19    35    38    1
    20    45    46    1
    21    15    16   ar
    22    15    20   ar
    23    15     6    1
    24    16    17   ar
    25    16    21    2
    26    17    18   ar
    27    17    23    1
    28    18    19   ar
    29    18    22    2
    30    19    20   ar
    31     6     7    1
    32     6    11    1
    33     7     8    1
    34     7     9    1
    35     8    13    1
    36     9    10    1
    37     9    12    1
    38    10    11    1
    39    10     5    1
    40    12    14    1
    41     5     4    1
    42     4     1    1
    43     1     2    2
    44     1     3    1
    45     1    24    1
    46    24    25    1
    47    25    26    2
    48    25    27    1
@<TRIPOS>MOLECULE
UD1
 46 48 0 0 0
SMALL
GASTEIGER

@<TRIPOS>ATOM
      1 P          21.1082   71.3865   -0.7117 P.3     1  UNL1        0.2189
      2 O          22.0781   70.9234   -1.7283 O.2     1  UNL1       -0.5170
      3 O          21.0036   70.2946    0.4670 O.3     1  UNL1       -0.4371
      4 O          19.6631   71.5755   -1.3965 O.3     1  UNL1       -0.3112
      5 C          19.5889   70.6383   -2.4719 C.3     1  UNL1        0.1811
      6 C          17.5114   70.6545   -5.4064 C.3     1  UNL1        0.2383
      7 C          17.3340   69.2345   -4.8130 C.3     1  UNL1        0.1895
      8 O          16.0322   68.7208   -5.0971 O.3     1  UNL1       -0.3779
      9 C          17.5077   69.4924   -3.2936 C.3     1  UNL1        0.1713
     10 C          18.2718   70.8288   -3.2257 C.3     1  UNL1        0.1764
     11 O          18.5372   71.2411   -4.5773 O.3     1  UNL1       -0.3308
     12 O          16.2333   69.6044   -2.6562 O.3     1  UNL1       -0.3794
     13 H          15.9869   67.8387   -4.7029 H       1  UNL1        0.2106
     14 H          15.7816   68.7596   -2.7847 H       1  UNL1        0.2105
     15 N          17.9520   70.5838   -6.8000 N.ar    1  UNL1       -0.2551
     16 C          17.0391   70.5376   -7.7859 C.ar    1  UNL1        0.3323
     17 N          17.4157   70.4761   -9.0769 N.ar    1  UNL1       -0.2743
     18 C          18.7238   70.4505   -9.4027 C.ar    1  UNL1        0.2626
     19 C          19.6953   70.4925   -8.3745 C.ar    1  UNL1        0.0795
     20 C          19.2900   70.5593   -7.0882 C.ar    1  UNL1        0.0869
     21 O          15.8555   70.5600   -7.5080 O.2     1  UNL1       -0.2464
     22 O          19.0653   70.3901  -10.5693 O.2     1  UNL1       -0.2670
     23 H          16.7437   70.4483   -9.7753 H       1  UNL1        0.1734
     24 O          21.6003   72.7914   -0.1011 O.3     1  UNL1       -0.2703
     25 P          22.5635   72.4465    1.1410 P.3     1  UNL1        0.2208
     26 O          23.6597   71.5639    0.6848 O.2     1  UNL1       -0.5170
     27 O          21.7153   71.6989    2.2873 O.3     1  UNL1       -0.4371
     28 O          23.1829   73.8078    1.7356 O.3     1  UNL1       -0.2865
     29 C          23.0113   73.7569    3.1530 C.3     1  UNL1        0.2611
     30 C          22.5489   75.1258    3.6552 C.3     1  UNL1        0.1582
     31 C          23.5953   76.1791    3.2744 C.3     1  UNL1        0.1625
     32 C          24.9625   75.7219    3.7936 C.3     1  UNL1        0.1686
     33 C          25.2442   74.3089    3.2783 C.3     1  UNL1        0.1760
     34 O          23.2497   77.4331    3.8657 O.3     1  UNL1       -0.3801
     35 O          25.9749   76.6141    3.3240 O.3     1  UNL1       -0.3794
     36 O          24.2501   73.4100    3.7682 O.3     1  UNL1       -0.3263
     37 H          23.9325   78.0646    3.6006 H       1  UNL1        0.2105
     38 H          26.8174   76.2896    3.6726 H       1  UNL1        0.2105
     39 C          21.2314   76.1777    1.8968 C.2     1  UNL1        0.2231
     40 C          19.9089   76.5274    1.2636 C.3     1  UNL1        0.0946
     41 N          21.2644   75.4653    3.0394 N.am    1  UNL1       -0.2994
     42 O          22.2663   76.5384    1.3779 O.2     1  UNL1       -0.2751
     43 H          20.4364   75.1768    3.4550 H       1  UNL1        0.1496
     44 C          26.6222   73.8553    3.7647 C.3     1  UNL1        0.1693
     45 O          26.9175   74.4835    5.0138 O.3     1  UNL1       -0.3794
     46 H          27.7918   74.1718    5.2840 H       1  UNL1        0.2105
@<TRIPOS>BOND
     1    29    30    1
     2    29    28    1
     3    29    36    1
     4    30    31    1
     5    30    41    1
     6    31    32    1
     7    31    34    1
     8    32    33    1
     9    32    35    1
    10    33    44    1
    11    33    36    1
    12    44    45    1
    13    39    40    1
    14    39    41   am
    15    39    42    2
    16    41    43    1
    17    28    25    1
    18    34    37    1
    19    35    38    1
    20    45    46    1
    21    15    16   ar
    22    15    20   ar
    23    15     6    1
    24    16    17   ar
    25    16    21    2
    26    17    18   ar
    27    17    23    1
    28    18    19   ar
    29    18    22    2
    30    19    20   ar
    31     6     7    1
    32     6    11    1
    33     7     8    1
    34     7     9    1
    35     8    13    1
    36     9    10    1
    37     9    12    1
    38    10    11    1
    39    10     5    1
    40    12    14    1
    41     5     4    1
    42     4     1    1
    43     1     2    2
    44     1     3    1
    45     1    24    1
    46    24    25    1
    47    25    26    2
    48    25    27    1
@<TRIPOS>MOLECULE
UD1
 46 48 0 0 0
SMALL
GASTEIGER

@<TRIPOS>ATOM
      1 P          20.8264   71.5342   -2.1210 P.3     1  UNL1        0.2189
      2 O          21.3989   70.7241   -3.2186 O.2     1  UNL1       -0.5170
      3 O          20.9550   70.7262   -0.7342 O.3     1  UNL1       -0.4371
      4 O          19.2733   71.8298   -2.4266 O.3     1  UNL1       -0.3112
      5 C          18.6078   70.5660   -2.4474 C.3     1  UNL1        0.1811
      6 C          16.9905   70.4659   -5.6570 C.3     1  UNL1        0.2383
      7 C          16.8920   69.0134   -5.1272 C.3     1  UNL1        0.1895
      8 O          15.7125   68.3711   -5.6126 O.3     1  UNL1       -0.3779
      9 C          16.8125   69.2308   -3.5937 C.3     1  UNL1        0.1713
     10 C          17.4011   70.6394   -3.3843 C.3     1  UNL1        0.1764
     11 O          17.8112   71.1295   -4.6723 O.3     1  UNL1       -0.3308
     12 O          15.4548   69.1779   -3.1506 O.3     1  UNL1       -0.3794
     13 H          15.7115   67.4750   -5.2486 H       1  UNL1        0.2106
     14 H          15.1260   68.2942   -3.3628 H       1  UNL1        0.2105
     15 N          17.6340   70.4970   -6.9709 N.ar    1  UNL1       -0.2551
     16 C          16.8796   70.4667   -8.0832 C.ar    1  UNL1        0.3323
     17 N          17.4443   70.4982   -9.3049 N.ar    1  UNL1       -0.2743
     18 C          18.7855   70.5516   -9.4323 C.ar    1  UNL1        0.2626
     19 C          19.5919   70.5779   -8.2696 C.ar    1  UNL1        0.0795
     20 C          18.9992   70.5508   -7.0567 C.ar    1  UNL1        0.0869
     21 O          15.6685   70.4186   -7.9847 O.2     1  UNL1       -0.2464
     22 O          19.2973   70.5752  -10.5363 O.2     1  UNL1       -0.2670
     23 H          16.8846   70.4805  -10.0964 H       1  UNL1        0.1734
     24 O          21.6253   72.9263   -2.0083 O.3     1  UNL1       -0.2703
     25 P          23.1426   72.5611   -1.6162 P.3     1  UNL1        0.2208
     26 O          23.6229   71.4585   -2.4779 O.2     1  UNL1       -0.5170
     27 O          23.2035   72.1017   -0.0743 O.3     1  UNL1       -0.4371
     28 O          24.0786   73.8534   -1.8269 O.3     1  UNL1       -0.2865
     29 C          23.2660   74.8590   -2.4349 C.3     1  UNL1        0.2611
     30 C          23.7268   75.0768   -3.8772 C.3     1  UNL1        0.1582
     31 C          25.2000   75.5002   -3.8743 C.3     1  UNL1        0.1625
     32 C          25.3601   76.7109   -2.9488 C.3     1  UNL1        0.1686
     33 C          24.7787   76.3687   -1.5754 C.3     1  UNL1        0.1760
     34 O          25.6001   75.8507   -5.2004 O.3     1  UNL1       -0.3801
     35 O          26.7462   77.0312   -2.8163 O.3     1  UNL1       -0.3794
     36 O          23.3878   76.0750   -1.7002 O.3     1  UNL1       -0.3263
     37 H          26.5307   76.1096   -5.1521 H       1  UNL1        0.2105
     38 H          26.8014   77.7964   -2.2264 H       1  UNL1        0.2105
     39 C          22.4937   73.6428   -5.4127 C.2     1  UNL1        0.2231
     40 C          22.3384   72.3607   -6.1902 C.3     1  UNL1        0.0946
     41 N          23.5757   73.8317   -4.6331 N.am    1  UNL1       -0.2994
     42 O          21.6440   74.5045   -5.4884 O.2     1  UNL1       -0.2751
     43 H          24.2557   73.1422   -4.5722 H       1  UNL1        0.1496
     44 C          24.9630   77.5605   -0.6336 C.3     1  UNL1        0.1693
     45 O          23.6831   78.0612   -0.2423 O.3     1  UNL1       -0.3794
     46 H          23.8440   78.8092    0.3486 H       1  UNL1        0.2105
@<TRIPOS>BOND
     1    29    30    1
     2    29    28    1
     3    29    36    1
     4    30    31    1
     5    30    41    1
     6    31    32    1
     7    31    34    1
     8    32    33    1
     9    32    35    1
    10    33    44    1
    11    33    36    1
    12    44    45    1
    13    39    40    1
    14    39    41   am
    15    39    42    2
    16    41    43    1
    17    28    25    1
    18    34    37    1
    19    35    38    1
    20    45    46    1
    21    15    16   ar
    22    15    20   ar
    23    15     6    1
    24    16    17   ar
    25    16    21    2
    26    17    18   ar
    27    17    23    1
    28    18    19   ar
    29    18    22    2
    30    19    20   ar
    31     6     7    1
    32     6    11    1
    33     7     8    1
    34     7     9    1
    35     8    13    1
    36     9    10    1
    37     9    12    1
    38    10    11    1
    39    10     5    1
    40    12    14    1
    41     5     4    1
    42     4     1    1
    43     1     2    2
    44     1     3    1
    45     1    24    1
    46    24    25    1
    47    25    26    2
    48    25    27    1
@<TRIPOS>MOLECULE
UD1
 46 48 0 0 0
SMALL
GASTEIGER

@<TRIPOS>ATOM
      1 P          22.0555   72.8941   -4.8530 P.3     1  UNL1        0.2189
      2 O          23.3838   72.4827   -5.3582 O.2     1  UNL1       -0.5170
      3 O          22.0959   74.4504   -4.4421 O.3     1  UNL1       -0.4371
      4 O          21.6752   72.0091   -3.5627 O.3     1  UNL1       -0.3112
      5 C          22.3061   72.6241   -2.4384 C.3     1  UNL1        0.1811
      6 C          23.5137   71.4569    0.7407 C.3     1  UNL1        0.2383
      7 C          22.1411   72.1006    1.0594 C.3     1  UNL1        0.1895
      8 O          21.5176   71.4522    2.1685 O.3     1  UNL1       -0.3779
      9 C          21.3490   71.8432   -0.2488 C.3     1  UNL1        0.1713
     10 C          22.4427   71.6034   -1.3076 C.3     1  UNL1        0.1764
     11 O          23.7142   71.7632   -0.6556 O.3     1  UNL1       -0.3308
     12 O          20.5159   70.6901   -0.1107 O.3     1  UNL1       -0.3794
     13 H          20.6720   71.8984    2.3148 H       1  UNL1        0.2106
     14 H          19.8938   70.8791    0.6044 H       1  UNL1        0.2105
     15 N          24.5703   72.0555    1.5573 N.ar    1  UNL1       -0.2551
     16 C          25.3534   71.2682    2.3151 C.ar    1  UNL1        0.3323
     17 N          26.3355   71.7911    3.0730 N.ar    1  UNL1       -0.2743
     18 C          26.5441   73.1230    3.0908 C.ar    1  UNL1        0.2626
     19 C          25.7231   73.9640    2.3024 C.ar    1  UNL1        0.0795
     20 C          24.7488   73.4126    1.5473 C.ar    1  UNL1        0.0869
     21 O          25.1777   70.0650    2.3097 O.2     1  UNL1       -0.2464
     22 O          27.4286   73.5973    3.7794 O.2     1  UNL1       -0.2670
     23 H          26.8939   71.2079    3.6099 H       1  UNL1        0.1734
     24 O          20.9514   72.6698   -6.0017 O.3     1  UNL1       -0.2703
     25 P          19.5414   72.4571   -5.2561 P.3     1  UNL1        0.2208
     26 O          19.4982   73.2921   -4.0355 O.2     1  UNL1       -0.5170
     27 O          19.3758   70.9076   -4.8515 O.3     1  UNL1       -0.4371
     28 O          18.3423   72.8841   -6.2411 O.3     1  UNL1       -0.2865
     29 C          17.4733   71.7553   -6.3498 C.3     1  UNL1        0.2611
     30 C          16.7710   71.7876   -7.7084 C.3     1  UNL1        0.1582
     31 C          15.9791   73.0941   -7.8324 C.3     1  UNL1        0.1625
     32 C          15.0545   73.2240   -6.6173 C.3     1  UNL1        0.1686
     33 C          15.8869   73.0864   -5.3408 C.3     1  UNL1        0.1760
     34 O          15.2006   73.0703   -9.0302 O.3     1  UNL1       -0.3801
     35 O          14.4155   74.5018   -6.6374 O.3     1  UNL1       -0.3794
     36 O          16.5047   71.8005   -5.3042 O.3     1  UNL1       -0.3263
     37 H          14.7203   73.9088   -9.0680 H       1  UNL1        0.2105
     38 H          13.8449   74.5415   -5.8568 H       1  UNL1        0.2105
     39 C          18.2407   70.5200   -9.1807 C.2     1  UNL1        0.2231
     40 C          19.2684   70.4464  -10.2810 C.3     1  UNL1        0.0946
     41 N          17.7691   71.7155   -8.7775 N.am    1  UNL1       -0.2994
     42 O          17.8386   69.5027   -8.6576 O.2     1  UNL1       -0.2751
     43 H          18.0908   72.5298   -9.1958 H       1  UNL1        0.1496
     44 C          14.9776   73.2471   -4.1207 C.3     1  UNL1        0.1693
     45 O          14.9285   74.6239   -3.7408 O.3     1  UNL1       -0.3794
     46 H          14.3471   74.6810   -2.9705 H       1  UNL1        0.2105
@<TRIPOS>BOND
     1    29    30    1
     2    29    28    1
     3    29    36    1
     4    30    31    1
     5    30    41    1
     6    31    32    1
     7    31    34    1
     8    32    33    1
     9    32    35    1
    10    33    44    1
    11    33    36    1
    12    44    45    1
    13    39    40    1
    14    39    41   am
    15    39    42    2
    16    41    43    1
    17    28    25    1
    18    34    37    1
    19    35    38    1
    20    45    46    1
    21    15    16   ar
    22    15    20   ar
    23    15     6    1
    24    16    17   ar
    25    16    21    2
    26    17    18   ar
    27    17    23    1
    28    18    19   ar
    29    18    22    2
    30    19    20   ar
    31     6     7    1
    32     6    11    1
    33     7     8    1
    34     7     9    1
    35     8    13    1
    36     9    10    1
    37     9    12    1
    38    10    11    1
    39    10     5    1
    40    12    14    1
    41     5     4    1
    42     4     1    1
    43     1     2    2
    44     1     3    1
    45     1    24    1
    46    24    25    1
    47    25    26    2
    48    25    27    1
@<TRIPOS>MOLECULE
UD1
 46 48 0 0 0
SMALL
GASTEIGER

@<TRIPOS>ATOM
      1 P          16.7168   69.5912   -2.6467 P.3     1  UNL1        0.2189
      2 O          16.5959   71.0487   -2.4237 O.2     1  UNL1       -0.5170
      3 O          16.0658   69.2100   -4.0692 O.3     1  UNL1       -0.4371
      4 O          15.9425   68.8035   -1.4751 O.3     1  UNL1       -0.3112
      5 C          15.1520   69.7689   -0.7797 C.3     1  UNL1        0.1811
      6 C          12.2971   68.1188    0.6535 C.3     1  UNL1        0.2383
      7 C          12.1780   69.5872    1.1330 C.3     1  UNL1        0.1895
      8 O          10.8099   69.9607    1.3008 O.3     1  UNL1       -0.3779
      9 C          12.8244   70.3668   -0.0416 C.3     1  UNL1        0.1713
     10 C          13.6921   69.3136   -0.7574 C.3     1  UNL1        0.1764
     11 O          13.5741   68.0857   -0.0186 O.3     1  UNL1       -0.3308
     12 O          11.8173   70.8749   -0.9192 O.3     1  UNL1       -0.3794
     13 H          10.8053   70.8807    1.5993 H       1  UNL1        0.2106
     14 H          11.2729   71.4804   -0.3986 H       1  UNL1        0.2105
     15 N          12.2886   67.1986    1.7912 N.ar    1  UNL1       -0.2551
     16 C          13.4516   66.8079    2.3409 C.ar    1  UNL1        0.3323
     17 N          13.4738   65.9654    3.3906 N.ar    1  UNL1       -0.2743
     18 C          12.3215   65.4898    3.9045 C.ar    1  UNL1        0.2626
     19 C          11.0903   65.8882    3.3317 C.ar    1  UNL1        0.0795
     20 C          11.0968   66.7385    2.2828 C.ar    1  UNL1        0.0869
     21 O          14.4992   67.2283    1.8886 O.2     1  UNL1       -0.2464
     22 O          12.3405   64.7242    4.8505 O.2     1  UNL1       -0.2670
     23 H          14.3216   65.6978    3.7776 H       1  UNL1        0.1734
     24 O          18.2707   69.1739   -2.6375 O.3     1  UNL1       -0.2703
     25 P          19.1173   70.5301   -2.8193 P.3     1  UNL1        0.2208
     26 O          20.5580   70.2044   -2.9051 O.2     1  UNL1       -0.5170
     27 O          18.8608   71.4970   -1.5577 O.3     1  UNL1       -0.4371
     28 O          18.6547   71.2764   -4.1682 O.3     1  UNL1       -0.2865
     29 C          19.4428   70.7376   -5.2311 C.3     1  UNL1        0.2611
     30 C          20.2439   71.8637   -5.8868 C.3     1  UNL1        0.1582
     31 C          19.2741   72.9258   -6.4169 C.3     1  UNL1        0.1625
     32 C          18.2470   72.2419   -7.3254 C.3     1  UNL1        0.1686
     33 C          17.5942   71.0890   -6.5600 C.3     1  UNL1        0.1760
     34 O          19.9986   73.9069   -7.1613 O.3     1  UNL1       -0.3801
     35 O          17.2476   73.1867   -7.7128 O.3     1  UNL1       -0.3794
     36 O          18.5859   70.1297   -6.1953 O.3     1  UNL1       -0.3263
     37 H          19.3516   74.5537   -7.4749 H       1  UNL1        0.2105
     38 H          16.6225   72.7153   -8.2817 H       1  UNL1        0.2105
     39 C          22.4481   72.6223   -5.1794 C.2     1  UNL1        0.2231
     40 C          23.3702   73.2431   -4.1613 C.3     1  UNL1        0.0946
     41 N          21.1400   72.4672   -4.8983 N.am    1  UNL1       -0.2994
     42 O          22.8840   72.2615   -6.2518 O.2     1  UNL1       -0.2751
     43 H          20.7910   72.7557   -4.0401 H       1  UNL1        0.1496
     44 C          16.5432   70.4195   -7.4478 C.3     1  UNL1        0.1693
     45 O          16.8797   70.6234   -8.8216 O.3     1  UNL1       -0.3794
     46 H          16.1940   70.1874   -9.3453 H       1  UNL1        0.2105
@<TRIPOS>BOND
     1    29    30    1
     2    29    28    1
     3    29    36    1
     4    30    31    1
     5    30    41    1
     6    31    32    1
     7    31    34    1
     8    32    33    1
     9    32    35    1
    10    33    44    1
    11    33    36    1
    12    44    45    1
    13    39    40    1
    14    39    41   am
    15    39    42    2
    16    41    43    1
    17    28    25    1
    18    34    37    1
    19    35    38    1
    20    45    46    1
    21    15    16   ar
    22    15    20   ar
    23    15     6    1
    24    16    17   ar
    25    16    21    2
    26    17    18   ar
    27    17    23    1
    28    18    19   ar
    29    18    22    2
    30    19    20   ar
    31     6     7    1
    32     6    11    1
    33     7     8    1
    34     7     9    1
    35     8    13    1
    36     9    10    1
    37     9    12    1
    38    10    11    1
    39    10     5    1
    40    12    14    1
    41     5     4    1
    42     4     1    1
    43     1     2    2
    44     1     3    1
    45     1    24    1
    46    24    25    1
    47    25    26    2
    48    25    27    1
@<TRIPOS>MOLECULE
UD1
 46 48 0 0 0
SMALL
GASTEIGER

@<TRIPOS>ATOM
      1 P          15.7276   69.8942   -2.0503 P.3     1  UNL1        0.2189
      2 O          16.7519   68.9742   -1.5089 O.2     1  UNL1       -0.5170
      3 O          16.0406   71.3952   -1.5586 O.3     1  UNL1       -0.4371
      4 O          14.2736   69.4492   -1.5206 O.3     1  UNL1       -0.3112
      5 C          14.3831   69.2767   -0.1069 C.3     1  UNL1        0.1811
      6 C          13.1413   66.8333    2.2201 C.3     1  UNL1        0.2383
      7 C          11.8727   67.5570    1.7032 C.3     1  UNL1        0.1895
      8 O          10.7491   66.6757    1.6951 O.3     1  UNL1       -0.3779
      9 C          12.2838   67.9427    0.2585 C.3     1  UNL1        0.1713
     10 C          13.8241   67.9082    0.2857 C.3     1  UNL1        0.1764
     11 O          14.2229   67.5841    1.6285 O.3     1  UNL1       -0.3308
     12 O          11.7722   66.9921   -0.6781 O.3     1  UNL1       -0.3794
     13 H           9.9960   67.1850    1.3652 H       1  UNL1        0.2106
     14 H          10.8088   67.0187   -0.6050 H       1  UNL1        0.2105
     15 N          13.2125   66.8894    3.6807 N.ar    1  UNL1       -0.2551
     16 C          12.8377   65.8224    4.4075 C.ar    1  UNL1        0.3323
     17 N          12.8963   65.8445    5.7523 N.ar    1  UNL1       -0.2743
     18 C          13.3264   66.9486    6.3956 C.ar    1  UNL1        0.2626
     19 C          13.7184   68.0812    5.6429 C.ar    1  UNL1        0.0795
     20 C          13.6546   68.0300    4.2951 C.ar    1  UNL1        0.0869
     21 O          12.4476   64.8192    3.8418 O.2     1  UNL1       -0.2464
     22 O          13.3753   66.9714    7.6115 O.2     1  UNL1       -0.2670
     23 H          12.6265   65.0641    6.2605 H       1  UNL1        0.1734
     24 O          15.7528   69.8391   -3.6582 O.3     1  UNL1       -0.2703
     25 P          17.2814   69.5832   -4.0907 P.3     1  UNL1        0.2208
     26 O          17.6696   68.2004   -3.7356 O.2     1  UNL1       -0.5170
     27 O          18.2391   70.6232   -3.3204 O.3     1  UNL1       -0.4371
     28 O          17.4331   69.7918   -5.6794 O.3     1  UNL1       -0.2865
     29 C          17.8875   71.1313   -5.8801 C.3     1  UNL1        0.2611
     30 C          16.8020   71.9297   -6.6042 C.3     1  UNL1        0.1582
     31 C          16.4951   71.2557   -7.9462 C.3     1  UNL1        0.1625
     32 C          17.8064   71.0865   -8.7209 C.3     1  UNL1        0.1686
     33 C          18.8152   70.3489   -7.8380 C.3     1  UNL1        0.1760
     34 O          15.5936   72.0714   -8.6967 O.3     1  UNL1       -0.3801
     35 O          17.5655   70.3297   -9.9087 O.3     1  UNL1       -0.3794
     36 O          19.0789   71.1153   -6.6635 O.3     1  UNL1       -0.3263
     37 H          15.4281   71.6106   -9.5307 H       1  UNL1        0.2105
     38 H          18.4151   70.2465  -10.3645 H       1  UNL1        0.2105
     39 C          15.3270   73.0365   -5.0125 C.2     1  UNL1        0.2231
     40 C          14.0789   73.0711   -4.1678 C.3     1  UNL1        0.0946
     41 N          15.5895   71.9640   -5.7838 N.am    1  UNL1       -0.2994
     42 O          16.0954   73.9743   -4.9974 O.2     1  UNL1       -0.2751
     43 H          14.9748   71.2133   -5.7959 H       1  UNL1        0.1496
     44 C          20.1180   70.1460   -8.6144 C.3     1  UNL1        0.1693
     45 O          21.1414   69.7030   -7.7209 O.3     1  UNL1       -0.3794
     46 H          21.9432   69.5879   -8.2487 H       1  UNL1        0.2105
@<TRIPOS>BOND
     1    29    30    1
     2    29    28    1
     3    29    36    1
     4    30    31    1
     5    30    41    1
     6    31    32    1
     7    31    34    1
     8    32    33    1
     9    32    35    1
    10    33    44    1
    11    33    36    1
    12    44    45    1
    13    39    40    1
    14    39    41   am
    15    39    42    2
    16    41    43    1
    17    28    25    1
    18    34    37    1
    19    35    38    1
    20    45    46    1
    21    15    16   ar
    22    15    20   ar
    23    15     6    1
    24    16    17   ar
    25    16    21    2
    26    17    18   ar
    27    17    23    1
    28    18    19   ar
    29    18    22    2
    30    19    20   ar
    31     6     7    1
    32     6    11    1
    33     7     8    1
    34     7     9    1
    35     8    13    1
    36     9    10    1
    37     9    12    1
    38    10    11    1
    39    10     5    1
    40    12    14    1
    41     5     4    1
    42     4     1    1
    43     1     2    2
    44     1     3    1
    45     1    24    1
    46    24    25    1
    47    25    26    2
    48    25    27    1
@<TRIPOS>MOLECULE
UD1
 46 48 0 0 0
SMALL
GASTEIGER

@<TRIPOS>ATOM
      1 P          23.2340   71.9248   -2.9148 P.3     1  UNL1        0.2189
      2 O          24.2114   70.8160   -2.9769 O.2     1  UNL1       -0.5170
      3 O          23.9167   73.2738   -3.4686 O.3     1  UNL1       -0.4371
      4 O          22.7708   72.1464   -1.3887 O.3     1  UNL1       -0.3112
      5 C          23.9345   71.9871   -0.5757 C.3     1  UNL1        0.1811
      6 C          23.1848   72.3257    2.9244 C.3     1  UNL1        0.2383
      7 C          21.8122   72.4600    2.2186 C.3     1  UNL1        0.1895
      8 O          20.7600   71.9680    3.0493 O.3     1  UNL1       -0.3779
      9 C          21.9986   71.5594    0.9699 C.3     1  UNL1        0.1713
     10 C          23.5273   71.4633    0.8023 C.3     1  UNL1        0.1764
     11 O          24.1238   72.2738    1.8293 O.3     1  UNL1       -0.3308
     12 O          21.4314   70.2671    1.1960 O.3     1  UNL1       -0.3794
     13 H          19.9366   72.0802    2.5545 H       1  UNL1        0.2106
     14 H          20.4870   70.4001    1.3527 H       1  UNL1        0.2105
     15 N          23.4475   73.4872    3.7749 N.ar    1  UNL1       -0.2551
     16 C          23.1068   73.4517    5.0749 C.ar    1  UNL1        0.3323
     17 N          23.3400   74.5039    5.8815 N.ar    1  UNL1       -0.2743
     18 C          23.9148   75.6211    5.3921 C.ar    1  UNL1        0.2626
     19 C          24.2731   75.6741    4.0240 C.ar    1  UNL1        0.0795
     20 C          24.0326   74.6024    3.2385 C.ar    1  UNL1        0.0869
     21 O          22.5877   72.4512    5.5312 O.2     1  UNL1       -0.2464
     22 O          24.1218   76.5748    6.1194 O.2     1  UNL1       -0.2670
     23 H          23.0921   74.4592    6.8179 H       1  UNL1        0.1734
     24 O          21.9522   71.5615   -3.8170 O.3     1  UNL1       -0.2703
     25 P          20.6517   71.8484   -2.9139 P.3     1  UNL1        0.2208
     26 O          20.7890   73.1665   -2.2562 O.2     1  UNL1       -0.5170
     27 O          20.5126   70.7017   -1.7924 O.3     1  UNL1       -0.4371
     28 O          19.3391   71.8478   -3.8455 O.3     1  UNL1       -0.2865
     29 C          19.5920   70.9377   -4.9174 C.3     1  UNL1        0.2611
     30 C          19.4424   71.6732   -6.2503 C.3     1  UNL1        0.1582
     31 C          18.0243   72.2463   -6.3502 C.3     1  UNL1        0.1625
     32 C          17.0200   71.1131   -6.1145 C.3     1  UNL1        0.1686
     33 C          17.3506   70.4217   -4.7900 C.3     1  UNL1        0.1760
     34 O          17.8241   72.8053   -7.6497 O.3     1  UNL1       -0.3801
     35 O          15.6974   71.6507   -6.0575 O.3     1  UNL1       -0.3794
     36 O          18.6608   69.8597   -4.8534 O.3     1  UNL1       -0.3263
     37 H          16.9220   73.1534   -7.6682 H       1  UNL1        0.2105
     38 H          15.0987   70.9054   -5.9074 H       1  UNL1        0.2105
     39 C          21.3240   72.7941   -7.3168 C.2     1  UNL1        0.2231
     40 C          22.3283   73.9160   -7.3885 C.3     1  UNL1        0.0946
     41 N          20.4180   72.7631   -6.3206 N.am    1  UNL1       -0.2994
     42 O          21.3319   71.9188   -8.1558 O.2     1  UNL1       -0.2751
     43 H          20.4116   73.4633   -5.6490 H       1  UNL1        0.1496
     44 C          16.3334   69.3089   -4.5293 C.3     1  UNL1        0.1693
     45 O          15.8810   68.7749   -5.7752 O.3     1  UNL1       -0.3794
     46 H          15.2433   68.0790   -5.5664 H       1  UNL1        0.2105
@<TRIPOS>BOND
     1    29    30    1
     2    29    28    1
     3    29    36    1
     4    30    31    1
     5    30    41    1
     6    31    32    1
     7    31    34    1
     8    32    33    1
     9    32    35    1
    10    33    44    1
    11    33    36    1
    12    44    45    1
    13    39    40    1
    14    39    41   am
    15    39    42    2
    16    41    43    1
    17    28    25    1
    18    34    37    1
    19    35    38    1
    20    45    46    1
    21    15    16   ar
    22    15    20   ar
    23    15     6    1
    24    16    17   ar
    25    16    21    2
    26    17    18   ar
    27    17    23    1
    28    18    19   ar
    29    18    22    2
    30    19    20   ar
    31     6     7    1
    32     6    11    1
    33     7     8    1
    34     7     9    1
    35     8    13    1
    36     9    10    1
    37     9    12    1
    38    10    11    1
    39    10     5    1
    40    12    14    1
    41     5     4    1
    42     4     1    1
    43     1     2    2
    44     1     3    1
    45     1    24    1
    46    24    25    1
    47    25    26    2
    48    25    27    1
