@<TRIPOS>MOLECULE
UDP-glaA
 43 45 0 0 0
SMALL
GASTEIGER

@<TRIPOS>ATOM
      1 P          23.0122   71.9938   -3.2768 P.3     1  UNL1        0.2189
      2 O          23.7514   72.9770   -4.3275 O.3     1  UNL1       -0.4371
      3 O          23.5632   70.5991   -3.2196 O.2     1  UNL1       -0.5170
      4 O          21.4467   72.1157   -3.6641 O.3     1  UNL1       -0.3112
      5 C          20.6276   70.9651   -3.5443 C.3     1  UNL1        0.1811
      6 O          18.7531   71.9769   -4.6563 O.3     1  UNL1       -0.3308
      7 O          17.0596   70.7735   -2.4941 O.3     1  UNL1       -0.3794
      8 O          16.6745   69.0564   -4.5772 O.3     1  UNL1       -0.3779
      9 C          18.2238   70.2450   -3.1289 C.3     1  UNL1        0.1713
     10 C          17.8906   69.7736   -4.5287 C.3     1  UNL1        0.1895
     11 C          19.1766   71.4018   -3.4006 C.3     1  UNL1        0.1764
     12 C          17.8272   71.0832   -5.2962 C.3     1  UNL1        0.2383
     13 H          17.3291   71.0976   -1.6179 H       1  UNL1        0.2105
     14 H          16.7594   68.2954   -3.9774 H       1  UNL1        0.2106
     15 O          16.0372   70.3939   -7.3688 O.2     1  UNL1       -0.2464
     16 O          19.3758   70.5221  -10.5430 O.2     1  UNL1       -0.2670
     17 N          18.2014   70.9303   -6.6731 N.ar    1  UNL1       -0.2551
     18 N          17.7010   70.4577   -8.9480 N.ar    1  UNL1       -0.2743
     19 C          17.2256   70.5810   -7.6358 C.ar    1  UNL1        0.3323
     20 C          19.5231   71.1257   -7.0581 C.ar    1  UNL1        0.0869
     21 C          19.9605   71.0048   -8.3134 C.ar    1  UNL1        0.0795
     22 C          19.0056   70.6417   -9.3792 C.ar    1  UNL1        0.2626
     23 H          17.0171   70.2067   -9.6568 H       1  UNL1        0.1734
     24 O          23.1069   72.8129   -1.8856 O.3     1  UNL1       -0.2703
     25 P          23.1974   74.4001   -1.5939 P.3     1  UNL1        0.2208
     26 O          21.9031   74.9929   -2.3616 O.3     1  UNL1       -0.4371
     27 O          24.5002   75.0277   -1.9996 O.2     1  UNL1       -0.5170
     28 O          22.8458   74.5484   -0.0260 O.3     1  UNL1       -0.2858
     29 O          21.5006   72.6413    0.3652 O.3     1  UNL1       -0.3226
     30 O          22.0703   74.1094    4.2123 O.3     1  UNL1       -0.3794
     31 O          21.5641   75.9307    1.9913 O.3     1  UNL1       -0.3775
     32 O          20.9897   71.8370    3.0728 O.3     1  UNL1       -0.3792
     33 C          22.3712   73.8063    2.8529 C.3     1  UNL1        0.1718
     34 C          21.3900   74.5196    1.9165 C.3     1  UNL1        0.1968
     35 C          22.2801   72.2912    2.6515 C.3     1  UNL1        0.1723
     36 C          21.5962   74.0660    0.4659 C.3     1  UNL1        0.2706
     37 C          22.4592   71.9585    1.1718 C.3     1  UNL1        0.1830
     38 H          22.7130   73.6360    4.7676 H       1  UNL1        0.2105
     39 H          20.9304   76.3374    1.3766 H       1  UNL1        0.2106
     40 H          20.3344   72.1087    2.4080 H       1  UNL1        0.2106
     41 O          23.1738   69.7587    1.5642 O.co2   1  UNL1       -0.5466
     42 O          21.3648   70.0358    0.2048 O.co2   1  UNL1       -0.5466
     43 C          22.2489   70.5012    0.9093 C.2     1  UNL1        0.0799
@<TRIPOS>UNITY_ATOM_ATTR
41 1
charge -1
@<TRIPOS>BOND
     1     1     4    1
     2     1    24    1
     3     1     2    1
     4     1     3    2
     5    25    28    1
     6    25    24    1
     7    25    26    1
     8    25    27    2
     9     6    11    1
    10     6    12    1
    11    29    36    1
    12    29    37    1
    13     7     9    1
    14     7    13    1
    15     8    10    1
    16     8    14    1
    17     4     5    1
    18    28    36    1
    19    30    33    1
    20    30    38    1
    21    31    34    1
    22    31    39    1
    23    32    35    1
    24    32    40    1
    25    41    43   ar
    26    15    19    2
    27    42    43   ar
    28    16    22    2
    29    17    12    1
    30    17    19   ar
    31    17    20   ar
    32    18    19   ar
    33    18    22   ar
    34    18    23    1
    35     9    10    1
    36     9    11    1
    37    10    12    1
    38    11     5    1
    39    33    34    1
    40    33    35    1
    41    34    36    1
    42    35    37    1
    43    37    43    1
    44    20    21   ar
    45    21    22   ar
@<TRIPOS>MOLECULE
UDP-glaA
 43 45 0 0 0
SMALL
GASTEIGER

@<TRIPOS>ATOM
      1 P          21.8928   73.5605   -5.9324 P.3     1  UNL1        0.2189
      2 O          22.2479   75.1285   -5.7510 O.3     1  UNL1       -0.4371
      3 O          22.8119   72.8052   -6.8472 O.2     1  UNL1       -0.5170
      4 O          20.3302   73.5605   -6.3492 O.3     1  UNL1       -0.3112
      5 C          19.9289   74.3251   -7.4733 C.3     1  UNL1        0.1811
      6 O          19.6309   72.0261   -8.1058 O.3     1  UNL1       -0.3308
      7 O          17.9290   73.0583  -10.3484 O.3     1  UNL1       -0.3794
      8 O          16.0761   72.2315   -8.5266 O.3     1  UNL1       -0.3779
      9 C          18.0602   73.5492   -9.0144 C.3     1  UNL1        0.1713
     10 C          17.3416   72.6344   -8.0452 C.3     1  UNL1        0.1895
     11 C          19.5140   73.3812   -8.5929 C.3     1  UNL1        0.1764
     12 C          18.3161   71.4753   -7.9234 C.3     1  UNL1        0.2383
     13 H          18.4363   73.6528  -10.9271 H       1  UNL1        0.2105
     14 H          15.5519   73.0362   -8.6811 H       1  UNL1        0.2106
     15 O          16.0906   70.0162   -6.9780 O.2     1  UNL1       -0.2464
     16 O          18.1779   69.0705   -2.9796 O.2     1  UNL1       -0.2670
     17 N          18.2510   70.8369   -6.6398 N.ar    1  UNL1       -0.2551
     18 N          17.1313   69.5467   -4.9874 N.ar    1  UNL1       -0.2743
     19 C          17.0863   70.1293   -6.2608 C.ar    1  UNL1        0.3323
     20 C          19.3336   70.9157   -5.7708 C.ar    1  UNL1        0.0869
     21 C          19.3613   70.3542   -4.5601 C.ar    1  UNL1        0.0795
     22 C          18.1846   69.5980   -4.0876 C.ar    1  UNL1        0.2626
     23 H          16.3046   69.0334   -4.6936 H       1  UNL1        0.1734
     24 O          21.8624   73.0173   -4.4095 O.3     1  UNL1       -0.2703
     25 P          23.0604   72.5885   -3.4127 P.3     1  UNL1        0.2208
     26 O          24.3035   73.4926   -3.9161 O.3     1  UNL1       -0.4371
     27 O          23.3387   71.1129   -3.3832 O.2     1  UNL1       -0.5170
     28 O          22.6494   73.2180   -1.9849 O.3     1  UNL1       -0.2858
     29 O          21.6703   71.4545   -0.7477 O.3     1  UNL1       -0.3226
     30 O          21.5679   74.5918    1.9775 O.3     1  UNL1       -0.3794
     31 O          20.9337   75.0486   -0.8324 O.3     1  UNL1       -0.3775
     32 O          21.0664   71.8759    2.0266 O.3     1  UNL1       -0.3792
     33 C          22.0522   73.7788    0.9121 C.3     1  UNL1        0.1718
     34 C          21.0461   73.7573   -0.2436 C.3     1  UNL1        0.1968
     35 C          22.2781   72.3581    1.4366 C.3     1  UNL1        0.1723
     36 C          21.4761   72.7523   -1.3194 C.3     1  UNL1        0.2706
     37 C          22.6609   71.4386    0.2790 C.3     1  UNL1        0.1830
     38 H          22.2337   74.5742    2.6859 H       1  UNL1        0.2105
     39 H          20.2954   74.9836   -1.5625 H       1  UNL1        0.2106
     40 H          20.4382   71.6666    1.3147 H       1  UNL1        0.2106
     41 O          23.4118   69.9293    1.9106 O.co2   1  UNL1       -0.5466
     42 O          22.3270   69.0535    0.1069 O.co2   1  UNL1       -0.5466
     43 C          22.7651   70.0142    0.7230 C.2     1  UNL1        0.0799
@<TRIPOS>UNITY_ATOM_ATTR
41 1
charge -1
@<TRIPOS>BOND
     1     1     4    1
     2     1    24    1
     3     1     2    1
     4     1     3    2
     5    25    28    1
     6    25    24    1
     7    25    26    1
     8    25    27    2
     9     6    11    1
    10     6    12    1
    11    29    36    1
    12    29    37    1
    13     7     9    1
    14     7    13    1
    15     8    10    1
    16     8    14    1
    17     4     5    1
    18    28    36    1
    19    30    33    1
    20    30    38    1
    21    31    34    1
    22    31    39    1
    23    32    35    1
    24    32    40    1
    25    41    43   ar
    26    15    19    2
    27    42    43   ar
    28    16    22    2
    29    17    12    1
    30    17    19   ar
    31    17    20   ar
    32    18    19   ar
    33    18    22   ar
    34    18    23    1
    35     9    10    1
    36     9    11    1
    37    10    12    1
    38    11     5    1
    39    33    34    1
    40    33    35    1
    41    34    36    1
    42    35    37    1
    43    37    43    1
    44    20    21   ar
    45    21    22   ar
@<TRIPOS>MOLECULE
UDP-glaA
 43 45 0 0 0
SMALL
GASTEIGER

@<TRIPOS>ATOM
      1 P          22.3325   71.2706   -2.7362 P.3     1  UNL1        0.2189
      2 O          23.4556   72.0754   -3.5779 O.3     1  UNL1       -0.4371
      3 O          22.0153   69.8986   -3.2548 O.2     1  UNL1       -0.5170
      4 O          21.0874   72.3001   -2.6642 O.3     1  UNL1       -0.3112
      5 C          20.3642   72.5727   -3.8525 C.3     1  UNL1        0.1811
      6 O          18.2046   72.3570   -4.8839 O.3     1  UNL1       -0.3308
      7 O          17.3779   70.8782   -2.4098 O.3     1  UNL1       -0.3794
      8 O          17.8264   68.8601   -4.1880 O.3     1  UNL1       -0.3779
      9 C          18.6339   70.8724   -3.0883 C.3     1  UNL1        0.1713
     10 C          18.5360   70.0683   -4.3675 C.3     1  UNL1        0.1895
     11 C          18.8899   72.2785   -3.6146 C.3     1  UNL1        0.1764
     12 C          17.8182   71.0349   -5.2940 C.3     1  UNL1        0.2383
     13 H          17.4780   71.4358   -1.6195 H       1  UNL1        0.2105
     14 H          18.2897   68.3475   -3.5032 H       1  UNL1        0.2106
     15 O          15.9776   70.5306   -7.3756 O.2     1  UNL1       -0.2464
     16 O          19.3264   70.3307  -10.5354 O.2     1  UNL1       -0.2670
     17 N          18.1813   70.8477   -6.6696 N.ar    1  UNL1       -0.2551
     18 N          17.6464   70.4308   -8.9476 N.ar    1  UNL1       -0.2743
     19 C          17.1799   70.5988   -7.6371 C.ar    1  UNL1        0.3323
     20 C          19.5176   70.9111   -7.0486 C.ar    1  UNL1        0.0869
     21 C          19.9464   70.7492   -8.3023 C.ar    1  UNL1        0.0795
     22 C          18.9647   70.4847   -9.3728 C.ar    1  UNL1        0.2626
     23 H          16.9441   70.2503   -9.6598 H       1  UNL1        0.1734
     24 O          22.9175   71.3023   -1.2289 O.3     1  UNL1       -0.2703
     25 P          22.3840   70.6090    0.1302 P.3     1  UNL1        0.2208
     26 O          23.5169   69.5000    0.4505 O.3     1  UNL1       -0.4371
     27 O          20.9889   70.0607    0.0355 O.2     1  UNL1       -0.5170
     28 O          22.5817   71.7354    1.2687 O.3     1  UNL1       -0.2858
     29 O          21.8135   72.4272    3.3972 O.3     1  UNL1       -0.3226
     30 O          21.1195   75.8076    1.0798 O.3     1  UNL1       -0.3794
     31 O          20.5620   73.1470    0.0233 O.3     1  UNL1       -0.3775
     32 O          21.0206   75.1614    3.7635 O.3     1  UNL1       -0.3792
     33 C          21.7690   74.6223    1.5310 C.3     1  UNL1        0.1718
     34 C          20.8342   73.4157    1.3947 C.3     1  UNL1        0.1968
     35 C          22.1755   74.8073    2.9955 C.3     1  UNL1        0.1723
     36 C          21.4588   72.1697    2.0346 C.3     1  UNL1        0.2706
     37 C          22.7448   73.4987    3.5393 C.3     1  UNL1        0.1830
     38 H          21.7456   76.5440    1.1864 H       1  UNL1        0.2105
     39 H          19.9763   72.3721   -0.0131 H       1  UNL1        0.2106
     40 H          20.4652   74.3705    3.8687 H       1  UNL1        0.2106
     41 O          24.2602   74.1349    5.2134 O.co2   1  UNL1       -0.5466
     42 O          22.2768   73.2405    5.8939 O.co2   1  UNL1       -0.5466
     43 C          23.0355   73.5949    5.0033 C.2     1  UNL1        0.0799
@<TRIPOS>UNITY_ATOM_ATTR
41 1
charge -1
@<TRIPOS>BOND
     1     1     4    1
     2     1    24    1
     3     1     2    1
     4     1     3    2
     5    25    28    1
     6    25    24    1
     7    25    26    1
     8    25    27    2
     9     6    11    1
    10     6    12    1
    11    29    36    1
    12    29    37    1
    13     7     9    1
    14     7    13    1
    15     8    10    1
    16     8    14    1
    17     4     5    1
    18    28    36    1
    19    30    33    1
    20    30    38    1
    21    31    34    1
    22    31    39    1
    23    32    35    1
    24    32    40    1
    25    41    43   ar
    26    15    19    2
    27    42    43   ar
    28    16    22    2
    29    17    12    1
    30    17    19   ar
    31    17    20   ar
    32    18    19   ar
    33    18    22   ar
    34    18    23    1
    35     9    10    1
    36     9    11    1
    37    10    12    1
    38    11     5    1
    39    33    34    1
    40    33    35    1
    41    34    36    1
    42    35    37    1
    43    37    43    1
    44    20    21   ar
    45    21    22   ar
@<TRIPOS>MOLECULE
UDP-glaA
 43 45 0 0 0
SMALL
GASTEIGER

@<TRIPOS>ATOM
      1 P          22.8085   71.6936   -2.2385 P.3     1  UNL1        0.2189
      2 O          23.3968   73.1959   -2.3592 O.3     1  UNL1       -0.4371
      3 O          23.4049   70.7017   -3.1937 O.2     1  UNL1       -0.5170
      4 O          21.2069   71.8929   -2.3411 O.3     1  UNL1       -0.3112
      5 C          20.5379   71.4183   -3.4971 C.3     1  UNL1        0.1811
      6 O          18.6144   72.2368   -4.6823 O.3     1  UNL1       -0.3308
      7 O          16.9775   71.0473   -2.4694 O.3     1  UNL1       -0.3794
      8 O          16.7342   69.1924   -4.4533 O.3     1  UNL1       -0.3779
      9 C          18.1823   70.5631   -3.0623 C.3     1  UNL1        0.1713
     10 C          17.8991   69.9914   -4.4354 C.3     1  UNL1        0.1895
     11 C          19.0593   71.7639   -3.3917 C.3     1  UNL1        0.1764
     12 C          17.7584   71.2479   -5.2777 C.3     1  UNL1        0.2383
     13 H          17.2137   71.4383   -1.6109 H       1  UNL1        0.2105
     14 H          16.8619   68.4742   -3.8099 H       1  UNL1        0.2106
     15 O          16.0308   70.3779   -7.3354 O.2     1  UNL1       -0.2464
     16 O          19.4083   70.4914  -10.4689 O.2     1  UNL1       -0.2670
     17 N          18.1594   71.0423   -6.6402 N.ar    1  UNL1       -0.2551
     18 N          17.7139   70.4345   -8.8943 N.ar    1  UNL1       -0.2743
     19 C          17.2141   70.6029   -7.5962 C.ar    1  UNL1        0.3323
     20 C          19.4772   71.2754   -7.0176 C.ar    1  UNL1        0.0869
     21 C          19.9382   71.1107   -8.2594 C.ar    1  UNL1        0.0795
     22 C          19.0158   70.6532   -9.3175 C.ar    1  UNL1        0.2626
     23 H          17.0522   70.1186   -9.5981 H       1  UNL1        0.1734
     24 O          23.0313   71.3418   -0.6759 O.3     1  UNL1       -0.2703
     25 P          22.0996   70.5398    0.3736 P.3     1  UNL1        0.2208
     26 O          23.1673   69.9157    1.4160 O.3     1  UNL1       -0.4371
     27 O          21.1878   69.5285   -0.2600 O.2     1  UNL1       -0.5170
     28 O          21.3391   71.6922    1.2088 O.3     1  UNL1       -0.2858
     29 O          21.8007   74.0130    1.2133 O.3     1  UNL1       -0.3226
     30 O          20.2190   73.4323    5.0133 O.3     1  UNL1       -0.3794
     31 O          22.0662   71.4896    3.8646 O.3     1  UNL1       -0.3775
     32 O          20.9456   75.5923    3.4524 O.3     1  UNL1       -0.3792
     33 C          20.4031   73.2439    3.6130 C.3     1  UNL1        0.1718
     34 C          21.8352   72.7843    3.3194 C.3     1  UNL1        0.1968
     35 C          20.1193   74.5655    2.8939 C.3     1  UNL1        0.1723
     36 C          22.0938   72.7445    1.8081 C.3     1  UNL1        0.2706
     37 C          20.4483   74.4231    1.4095 C.3     1  UNL1        0.1830
     38 H          19.3019   73.7245    5.1519 H       1  UNL1        0.2105
     39 H          22.9792   71.2378    3.6460 H       1  UNL1        0.2106
     40 H          21.8578   75.4559    3.1449 H       1  UNL1        0.2106
     41 O          20.2975   75.5354   -0.6506 O.co2   1  UNL1       -0.5466
     42 O          20.2154   76.8197    1.2311 O.co2   1  UNL1       -0.5466
     43 C          20.3093   75.7273    0.6906 C.2     1  UNL1        0.0799
@<TRIPOS>UNITY_ATOM_ATTR
41 1
charge -1
@<TRIPOS>BOND
     1     1     4    1
     2     1    24    1
     3     1     2    1
     4     1     3    2
     5    25    28    1
     6    25    24    1
     7    25    26    1
     8    25    27    2
     9     6    11    1
    10     6    12    1
    11    29    36    1
    12    29    37    1
    13     7     9    1
    14     7    13    1
    15     8    10    1
    16     8    14    1
    17     4     5    1
    18    28    36    1
    19    30    33    1
    20    30    38    1
    21    31    34    1
    22    31    39    1
    23    32    35    1
    24    32    40    1
    25    41    43   ar
    26    15    19    2
    27    42    43   ar
    28    16    22    2
    29    17    12    1
    30    17    19   ar
    31    17    20   ar
    32    18    19   ar
    33    18    22   ar
    34    18    23    1
    35     9    10    1
    36     9    11    1
    37    10    12    1
    38    11     5    1
    39    33    34    1
    40    33    35    1
    41    34    36    1
    42    35    37    1
    43    37    43    1
    44    20    21   ar
    45    21    22   ar
@<TRIPOS>MOLECULE
UDP-glaA
 43 45 0 0 0
SMALL
GASTEIGER

@<TRIPOS>ATOM
      1 P          22.9211   72.1059   -2.4922 P.3     1  UNL1        0.2189
      2 O          23.7934   73.2252   -3.2692 O.3     1  UNL1       -0.4371
      3 O          23.3692   70.6904   -2.7104 O.2     1  UNL1       -0.5170
      4 O          21.3963   72.4343   -2.9196 O.3     1  UNL1       -0.3112
      5 C          20.6247   71.4074   -3.5191 C.3     1  UNL1        0.1811
      6 O          18.6857   72.2351   -4.6721 O.3     1  UNL1       -0.3308
      7 O          17.0792   71.0416   -2.4392 O.3     1  UNL1       -0.3794
      8 O          16.8014   69.1946   -4.4260 O.3     1  UNL1       -0.3779
      9 C          18.2738   70.5565   -3.0519 C.3     1  UNL1        0.1713
     10 C          17.9684   69.9906   -4.4227 C.3     1  UNL1        0.1895
     11 C          19.1488   71.7563   -3.3902 C.3     1  UNL1        0.1764
     12 C          17.8183   71.2505   -5.2582 C.3     1  UNL1        0.2383
     13 H          17.3293   71.4288   -1.5830 H       1  UNL1        0.2105
     14 H          16.9369   68.4737   -3.7871 H       1  UNL1        0.2106
     15 O          16.0662   70.3586   -7.2855 O.2     1  UNL1       -0.2464
     16 O          19.3876   70.5107  -10.4767 O.2     1  UNL1       -0.2670
     17 N          18.1982   71.0489   -6.6273 N.ar    1  UNL1       -0.2551
     18 N          17.7214   70.4344   -8.8732 N.ar    1  UNL1       -0.2743
     19 C          17.2419   70.5976   -7.5668 C.ar    1  UNL1        0.3323
     20 C          19.5065   71.2976   -7.0274 C.ar    1  UNL1        0.0869
     21 C          19.9480   71.1376   -8.2769 C.ar    1  UNL1        0.0795
     22 C          19.0131   70.6685   -9.3188 C.ar    1  UNL1        0.2626
     23 H          17.0515   70.1102   -9.5654 H       1  UNL1        0.1734
     24 O          22.9821   72.6022   -0.9544 O.3     1  UNL1       -0.2703
     25 P          22.0480   72.2408    0.3142 P.3     1  UNL1        0.2208
     26 O          22.5332   70.7522    0.7202 O.3     1  UNL1       -0.4371
     27 O          20.5747   72.3618    0.0487 O.2     1  UNL1       -0.5170
     28 O          22.5907   73.1860    1.5042 O.3     1  UNL1       -0.2858
     29 O          24.0068   73.3706    3.3910 O.3     1  UNL1       -0.3226
     30 O          20.2303   73.6443    5.1063 O.3     1  UNL1       -0.3794
     31 O          20.7494   71.7355    2.9631 O.3     1  UNL1       -0.3775
     32 O          22.8420   73.9681    5.9454 O.3     1  UNL1       -0.3792
     33 C          21.2560   73.8060    4.1306 C.3     1  UNL1        0.1718
     34 C          21.7694   72.4398    3.6634 C.3     1  UNL1        0.1968
     35 C          22.4020   74.6138    4.7460 C.3     1  UNL1        0.1723
     36 C          22.9867   72.6022    2.7446 C.3     1  UNL1        0.2706
     37 C          23.5704   74.6766    3.7647 C.3     1  UNL1        0.1830
     38 H          19.9378   74.5320    5.3744 H       1  UNL1        0.2105
     39 H          21.1225   70.8839    2.6796 H       1  UNL1        0.2106
     40 H          23.3439   73.1721    5.7013 H       1  UNL1        0.2106
     41 O          25.5789   74.4332    4.9523 O.co2   1  UNL1       -0.5466
     42 O          24.9764   76.5489    4.3542 O.co2   1  UNL1       -0.5466
     43 C          24.7613   75.3456    4.3739 C.2     1  UNL1        0.0799
@<TRIPOS>UNITY_ATOM_ATTR
41 1
charge -1
@<TRIPOS>BOND
     1     1     4    1
     2     1    24    1
     3     1     2    1
     4     1     3    2
     5    25    28    1
     6    25    24    1
     7    25    26    1
     8    25    27    2
     9     6    11    1
    10     6    12    1
    11    29    36    1
    12    29    37    1
    13     7     9    1
    14     7    13    1
    15     8    10    1
    16     8    14    1
    17     4     5    1
    18    28    36    1
    19    30    33    1
    20    30    38    1
    21    31    34    1
    22    31    39    1
    23    32    35    1
    24    32    40    1
    25    41    43   ar
    26    15    19    2
    27    42    43   ar
    28    16    22    2
    29    17    12    1
    30    17    19   ar
    31    17    20   ar
    32    18    19   ar
    33    18    22   ar
    34    18    23    1
    35     9    10    1
    36     9    11    1
    37    10    12    1
    38    11     5    1
    39    33    34    1
    40    33    35    1
    41    34    36    1
    42    35    37    1
    43    37    43    1
    44    20    21   ar
    45    21    22   ar
@<TRIPOS>MOLECULE
UDP-glaA
 43 45 0 0 0
SMALL
GASTEIGER

@<TRIPOS>ATOM
      1 P          21.6577   73.2189   -6.2223 P.3     1  UNL1        0.2189
      2 O          21.5372   74.8181   -6.0094 O.3     1  UNL1       -0.4371
      3 O          22.8115   72.7790   -7.0752 O.2     1  UNL1       -0.5170
      4 O          20.1907   72.7838   -6.7458 O.3     1  UNL1       -0.3112
      5 C          19.7462   71.4616   -6.4940 C.3     1  UNL1        0.1811
      6 O          17.5473   71.0496   -7.3711 O.3     1  UNL1       -0.3308
      7 O          18.8353   71.0262  -10.0789 O.3     1  UNL1       -0.3794
      8 O          17.7319   73.5173   -9.9658 O.3     1  UNL1       -0.3779
      9 C          19.1450   71.8267   -8.9383 C.3     1  UNL1        0.1713
     10 C          18.0932   72.8991   -8.7481 C.3     1  UNL1        0.1895
     11 C          18.9527   70.9677   -7.6954 C.3     1  UNL1        0.1764
     12 C          16.9492   72.1133   -8.1301 C.3     1  UNL1        0.2383
     13 H          19.5127   70.3311  -10.1377 H       1  UNL1        0.2105
     14 H          18.5388   73.9019  -10.3495 H       1  UNL1        0.2106
     15 O          14.8953   73.8476   -8.9959 O.2     1  UNL1       -0.2464
     16 O          13.9216   75.1443   -4.6821 O.2     1  UNL1       -0.2670
     17 N          16.1428   72.9155   -7.2551 N.ar    1  UNL1       -0.2551
     18 N          14.4122   74.4926   -6.8472 N.ar    1  UNL1       -0.2743
     19 C          15.1378   73.7541   -7.7912 C.ar    1  UNL1        0.3323
     20 C          16.3516   72.8666   -5.8812 C.ar    1  UNL1        0.0869
     21 C          15.6510   73.5765   -4.9941 C.ar    1  UNL1        0.0795
     22 C          14.5835   74.4777   -5.4717 C.ar    1  UNL1        0.2626
     23 H          13.6848   75.1028   -7.2100 H       1  UNL1        0.1734
     24 O          21.6855   72.6528   -4.7077 O.3     1  UNL1       -0.2703
     25 P          22.9046   72.4892   -3.6591 P.3     1  UNL1        0.2208
     26 O          24.0768   73.3947   -4.3088 O.3     1  UNL1       -0.4371
     27 O          23.2985   71.0651   -3.3898 O.2     1  UNL1       -0.5170
     28 O          22.4324   73.3090   -2.3518 O.3     1  UNL1       -0.2858
     29 O          21.4429   71.5667   -1.0930 O.3     1  UNL1       -0.3226
     30 O          21.6327   74.6508    1.6876 O.3     1  UNL1       -0.3794
     31 O          20.8675   75.1910   -1.0744 O.3     1  UNL1       -0.3775
     32 O          21.0113   71.9595    1.7173 O.3     1  UNL1       -0.3792
     33 C          22.0205   73.8383    0.5831 C.3     1  UNL1        0.1718
     34 C          20.9529   73.8845   -0.5153 C.3     1  UNL1        0.1968
     35 C          22.2097   72.3989    1.0695 C.3     1  UNL1        0.1723
     36 C          21.2772   72.8829   -1.6306 C.3     1  UNL1        0.2706
     37 C          22.4863   71.4863   -0.1233 C.3     1  UNL1        0.1830
     38 H          22.3347   74.5895    2.3576 H       1  UNL1        0.2105
     39 H          20.1880   75.1690   -1.7691 H       1  UNL1        0.2106
     40 H          20.3362   71.7926    1.0379 H       1  UNL1        0.2106
     41 O          23.8158   69.5787    0.1889 O.co2   1  UNL1       -0.5466
     42 O          21.5956   69.3869    0.6697 O.co2   1  UNL1       -0.5466
     43 C          22.5496   70.0501    0.2895 C.2     1  UNL1        0.0799
@<TRIPOS>UNITY_ATOM_ATTR
41 1
charge -1
@<TRIPOS>BOND
     1     1     4    1
     2     1    24    1
     3     1     2    1
     4     1     3    2
     5    25    28    1
     6    25    24    1
     7    25    26    1
     8    25    27    2
     9     6    11    1
    10     6    12    1
    11    29    36    1
    12    29    37    1
    13     7     9    1
    14     7    13    1
    15     8    10    1
    16     8    14    1
    17     4     5    1
    18    28    36    1
    19    30    33    1
    20    30    38    1
    21    31    34    1
    22    31    39    1
    23    32    35    1
    24    32    40    1
    25    41    43   ar
    26    15    19    2
    27    42    43   ar
    28    16    22    2
    29    17    12    1
    30    17    19   ar
    31    17    20   ar
    32    18    19   ar
    33    18    22   ar
    34    18    23    1
    35     9    10    1
    36     9    11    1
    37    10    12    1
    38    11     5    1
    39    33    34    1
    40    33    35    1
    41    34    36    1
    42    35    37    1
    43    37    43    1
    44    20    21   ar
    45    21    22   ar
@<TRIPOS>MOLECULE
UDP-glaA
 43 45 0 0 0
SMALL
GASTEIGER

@<TRIPOS>ATOM
      1 P          22.8505   73.5387   -4.1659 P.3     1  UNL1        0.2189
      2 O          21.9529   74.6308   -3.3792 O.3     1  UNL1       -0.4371
      3 O          24.2468   73.3712   -3.6421 O.2     1  UNL1       -0.5170
      4 O          22.7299   73.9797   -5.7172 O.3     1  UNL1       -0.3112
      5 C          22.4453   72.9835   -6.6846 C.3     1  UNL1        0.1811
      6 O          21.1964   72.8901   -8.7353 O.3     1  UNL1       -0.3308
      7 O          21.9500   75.7685   -9.1072 O.3     1  UNL1       -0.3794
      8 O          19.3880   75.9376   -8.1889 O.3     1  UNL1       -0.3779
      9 C          21.6391   75.0643   -7.9050 C.3     1  UNL1        0.1713
     10 C          20.1496   74.8073   -7.8172 C.3     1  UNL1        0.1895
     11 C          22.1992   73.6534   -8.0289 C.3     1  UNL1        0.1764
     12 C          19.9729   73.6428   -8.7767 C.3     1  UNL1        0.2383
     13 H          22.9160   75.8755   -9.1388 H       1  UNL1        0.2105
     14 H          19.6389   76.6672   -7.5966 H       1  UNL1        0.2106
     15 O          17.2803   74.0711   -9.5131 O.2     1  UNL1       -0.2464
     16 O          15.8784   70.2878   -7.2862 O.2     1  UNL1       -0.2670
     17 N          18.8841   72.7856   -8.4038 N.ar    1  UNL1       -0.2551
     18 N          16.5840   72.1872   -8.4033 N.ar    1  UNL1       -0.2743
     19 C          17.5686   73.0905   -8.8247 C.ar    1  UNL1        0.3323
     20 C          19.1250   71.6565   -7.6288 C.ar    1  UNL1        0.0869
     21 C          18.1754   70.8047   -7.2355 C.ar    1  UNL1        0.0795
     22 C          16.7748   71.0513   -7.6318 C.ar    1  UNL1        0.2626
     23 H          15.6306   72.3867   -8.6937 H       1  UNL1        0.1734
     24 O          21.9404   72.2037   -4.0962 O.3     1  UNL1       -0.2703
     25 P          21.9518   70.9659   -3.0568 P.3     1  UNL1        0.2208
     26 O          23.4999   70.4975   -3.0545 O.3     1  UNL1       -0.4371
     27 O          20.9744   69.8746   -3.3879 O.2     1  UNL1       -0.5170
     28 O          21.7283   71.6446   -1.6100 O.3     1  UNL1       -0.2858
     29 O          23.3758   72.9379   -0.5090 O.3     1  UNL1       -0.3226
     30 O          20.9749   71.7097    2.6544 O.3     1  UNL1       -0.3794
     31 O          21.6432   69.8635    0.4978 O.3     1  UNL1       -0.3775
     32 O          23.0792   73.4632    2.2972 O.3     1  UNL1       -0.3792
     33 C          21.3162   72.1220    1.3338 C.3     1  UNL1        0.1718
     34 C          22.2833   71.1199    0.6943 C.3     1  UNL1        0.1968
     35 C          21.9651   73.5073    1.3996 C.3     1  UNL1        0.1723
     36 C          22.7899   71.6403   -0.6566 C.3     1  UNL1        0.2706
     37 C          22.4666   73.9055    0.0132 C.3     1  UNL1        0.1830
     38 H          20.3650   72.3728    3.0202 H       1  UNL1        0.2105
     39 H          22.2891   69.2668    0.0835 H       1  UNL1        0.2106
     40 H          23.8066   72.9857    1.8635 H       1  UNL1        0.2106
     41 O          22.4647   76.2100   -0.4262 O.co2   1  UNL1       -0.5466
     42 O          24.3665   75.3249    0.4665 O.co2   1  UNL1       -0.5466
     43 C          23.2229   75.1952    0.0544 C.2     1  UNL1        0.0799
@<TRIPOS>UNITY_ATOM_ATTR
41 1
charge -1
@<TRIPOS>BOND
     1     1     4    1
     2     1    24    1
     3     1     2    1
     4     1     3    2
     5    25    28    1
     6    25    24    1
     7    25    26    1
     8    25    27    2
     9     6    11    1
    10     6    12    1
    11    29    36    1
    12    29    37    1
    13     7     9    1
    14     7    13    1
    15     8    10    1
    16     8    14    1
    17     4     5    1
    18    28    36    1
    19    30    33    1
    20    30    38    1
    21    31    34    1
    22    31    39    1
    23    32    35    1
    24    32    40    1
    25    41    43   ar
    26    15    19    2
    27    42    43   ar
    28    16    22    2
    29    17    12    1
    30    17    19   ar
    31    17    20   ar
    32    18    19   ar
    33    18    22   ar
    34    18    23    1
    35     9    10    1
    36     9    11    1
    37    10    12    1
    38    11     5    1
    39    33    34    1
    40    33    35    1
    41    34    36    1
    42    35    37    1
    43    37    43    1
    44    20    21   ar
    45    21    22   ar
@<TRIPOS>MOLECULE
UDP-glaA
 43 45 0 0 0
SMALL
GASTEIGER

@<TRIPOS>ATOM
      1 P          21.7355   74.6335   -6.3957 P.3     1  UNL1        0.2189
      2 O          20.8215   75.9517   -6.1855 O.3     1  UNL1       -0.4371
      3 O          23.0805   74.8873   -7.0111 O.2     1  UNL1       -0.5170
      4 O          20.7728   73.6167   -7.2049 O.3     1  UNL1       -0.3112
      5 C          21.3662   72.6807   -8.0886 C.3     1  UNL1        0.1811
      6 O          19.8126   70.8676   -8.3596 O.3     1  UNL1       -0.3308
      7 O          18.3959   72.6237  -10.3346 O.3     1  UNL1       -0.3794
      8 O          16.8613   72.8866   -8.0959 O.3     1  UNL1       -0.3779
      9 C          19.0625   72.9809   -9.1239 C.3     1  UNL1        0.1713
     10 C          18.2290   72.5761   -7.9264 C.3     1  UNL1        0.1895
     11 C          20.2851   72.0844   -8.9788 C.3     1  UNL1        0.1764
     12 C          18.4837   71.0801   -7.8554 C.3     1  UNL1        0.2383
     13 H          18.9830   72.8659  -11.0709 H       1  UNL1        0.2105
     14 H          16.7950   73.8458   -8.2431 H       1  UNL1        0.2106
     15 O          16.1196   70.1164   -6.6480 O.2     1  UNL1       -0.2464
     16 O          18.3048   69.1633   -2.7040 O.2     1  UNL1       -0.2670
     17 N          18.4062   70.5738   -6.5148 N.ar    1  UNL1       -0.2551
     18 N          17.2092   69.6430   -4.6847 N.ar    1  UNL1       -0.2743
     19 C          17.1699   70.1146   -6.0034 C.ar    1  UNL1        0.3323
     20 C          19.5473   70.5360   -5.7211 C.ar    1  UNL1        0.0869
     21 C          19.5685   70.0829   -4.4657 C.ar    1  UNL1        0.0795
     22 C          18.3191   69.5859   -3.8560 C.ar    1  UNL1        0.2626
     23 H          16.3317   69.3083   -4.2959 H       1  UNL1        0.1734
     24 O          21.7840   73.9863   -4.9145 O.3     1  UNL1       -0.2703
     25 P          22.9560   73.9721   -3.8015 P.3     1  UNL1        0.2208
     26 O          23.1681   75.5400   -3.4659 O.3     1  UNL1       -0.4371
     27 O          24.2043   73.2555   -4.2306 O.2     1  UNL1       -0.5170
     28 O          22.2580   73.3624   -2.4805 O.3     1  UNL1       -0.2858
     29 O          22.7197   72.9097   -0.2042 O.3     1  UNL1       -0.3226
     30 O          21.2752   69.2496   -1.5445 O.3     1  UNL1       -0.3794
     31 O          23.0799   70.8282   -3.2050 O.3     1  UNL1       -0.3775
     32 O          21.9456   70.3712    0.8891 O.3     1  UNL1       -0.3792
     33 C          21.4090   70.6649   -1.4477 C.3     1  UNL1        0.1718
     34 C          22.8296   71.0947   -1.8291 C.3     1  UNL1        0.1968
     35 C          21.0997   71.0944   -0.0110 C.3     1  UNL1        0.1723
     36 C          23.0339   72.5915   -1.5640 C.3     1  UNL1        0.2706
     37 C          21.3752   72.5880    0.1487 C.3     1  UNL1        0.1830
     38 H          20.3637   69.0232   -1.2925 H       1  UNL1        0.2105
     39 H          23.9845   71.1246   -3.4015 H       1  UNL1        0.2106
     40 H          22.8461   70.7316    0.8235 H       1  UNL1        0.2106
     41 O          21.0241   71.9573    2.3809 O.co2   1  UNL1       -0.5466
     42 O          21.2422   74.1860    1.9539 O.co2   1  UNL1       -0.5466
     43 C          21.2107   73.0260    1.5693 C.2     1  UNL1        0.0799
@<TRIPOS>UNITY_ATOM_ATTR
41 1
charge -1
@<TRIPOS>BOND
     1     1     4    1
     2     1    24    1
     3     1     2    1
     4     1     3    2
     5    25    28    1
     6    25    24    1
     7    25    26    1
     8    25    27    2
     9     6    11    1
    10     6    12    1
    11    29    36    1
    12    29    37    1
    13     7     9    1
    14     7    13    1
    15     8    10    1
    16     8    14    1
    17     4     5    1
    18    28    36    1
    19    30    33    1
    20    30    38    1
    21    31    34    1
    22    31    39    1
    23    32    35    1
    24    32    40    1
    25    41    43   ar
    26    15    19    2
    27    42    43   ar
    28    16    22    2
    29    17    12    1
    30    17    19   ar
    31    17    20   ar
    32    18    19   ar
    33    18    22   ar
    34    18    23    1
    35     9    10    1
    36     9    11    1
    37    10    12    1
    38    11     5    1
    39    33    34    1
    40    33    35    1
    41    34    36    1
    42    35    37    1
    43    37    43    1
    44    20    21   ar
    45    21    22   ar
@<TRIPOS>MOLECULE
UDP-glaA
 43 45 0 0 0
SMALL
GASTEIGER

@<TRIPOS>ATOM
      1 P          23.2074   72.7041   -3.5903 P.3     1  UNL1        0.2189
      2 O          23.4700   71.1430   -3.2567 O.3     1  UNL1       -0.4371
      3 O          24.4356   73.4912   -3.9429 O.2     1  UNL1       -0.5170
      4 O          22.3714   73.2401   -2.3139 O.3     1  UNL1       -0.3112
      5 C          21.1816   72.5611   -1.9498 C.3     1  UNL1        0.1811
      6 O          19.6371   73.3819   -0.3020 O.3     1  UNL1       -0.3308
      7 O          19.4695   75.8685   -1.9692 O.3     1  UNL1       -0.3794
      8 O          21.1613   76.6095    0.0368 O.3     1  UNL1       -0.3779
      9 C          20.5926   75.0245   -1.7167 C.3     1  UNL1        0.1713
     10 C          21.1062   75.2410   -0.3089 C.3     1  UNL1        0.1895
     11 C          20.0952   73.5862   -1.6568 C.3     1  UNL1        0.1764
     12 C          20.0925   74.4698    0.5192 C.3     1  UNL1        0.2383
     13 H          19.1515   75.6673   -2.8659 H       1  UNL1        0.2105
     14 H          21.7440   77.0504   -0.6052 H       1  UNL1        0.2106
     15 O          21.1817   71.8757    0.7627 O.2     1  UNL1       -0.2464
     16 O          22.2417   72.5389    5.1984 O.2     1  UNL1       -0.2670
     17 N          20.6602   73.9388    1.7254 N.ar    1  UNL1       -0.2551
     18 N          21.7083   72.2074    2.9715 N.ar    1  UNL1       -0.2743
     19 C          21.1798   72.6233    1.7424 C.ar    1  UNL1        0.3323
     20 C          20.6981   74.7191    2.8757 C.ar    1  UNL1        0.0869
     21 C          21.2059   74.3083    4.0399 C.ar    1  UNL1        0.0795
     22 C          21.7679   72.9470    4.1425 C.ar    1  UNL1        0.2626
     23 H          22.0870   71.2649    3.0072 H       1  UNL1        0.1734
     24 O          22.0892   72.6422   -4.7569 O.3     1  UNL1       -0.2703
     25 P          21.8691   73.5662   -6.0647 P.3     1  UNL1        0.2208
     26 O          22.8806   72.9210   -7.1494 O.3     1  UNL1       -0.4371
     27 O          22.0735   75.0344   -5.8231 O.2     1  UNL1       -0.5170
     28 O          20.3965   73.1769   -6.5974 O.3     1  UNL1       -0.2858
     29 O          19.0670   71.2215   -6.5064 O.3     1  UNL1       -0.3226
     30 O          18.2950   72.6219  -10.3434 O.3     1  UNL1       -0.3794
     31 O          20.9978   72.7074   -9.2508 O.3     1  UNL1       -0.3775
     32 O          17.2973   70.6455   -8.6916 O.3     1  UNL1       -0.3792
     33 C          18.5864   72.6720   -8.9495 C.3     1  UNL1        0.1718
     34 C          19.9244   71.9839   -8.6582 C.3     1  UNL1        0.1968
     35 C          17.4602   71.9734   -8.1827 C.3     1  UNL1        0.1723
     36 C          20.1644   71.8807   -7.1469 C.3     1  UNL1        0.2706
     37 C          17.8222   71.8910   -6.7014 C.3     1  UNL1        0.1830
     38 H          17.4407   73.0657  -10.4806 H       1  UNL1        0.2105
     39 H          21.8220   72.2409   -9.0322 H       1  UNL1        0.2106
     40 H          18.0405   70.1018   -8.3797 H       1  UNL1        0.2106
     41 O          16.0164   71.9219   -5.2041 O.co2   1  UNL1       -0.5466
     42 O          16.7046   69.8837   -5.9586 O.co2   1  UNL1       -0.5466
     43 C          16.8100   71.1014   -5.9338 C.2     1  UNL1        0.0799
@<TRIPOS>UNITY_ATOM_ATTR
41 1
charge -1
@<TRIPOS>BOND
     1     1     4    1
     2     1    24    1
     3     1     2    1
     4     1     3    2
     5    25    28    1
     6    25    24    1
     7    25    26    1
     8    25    27    2
     9     6    11    1
    10     6    12    1
    11    29    36    1
    12    29    37    1
    13     7     9    1
    14     7    13    1
    15     8    10    1
    16     8    14    1
    17     4     5    1
    18    28    36    1
    19    30    33    1
    20    30    38    1
    21    31    34    1
    22    31    39    1
    23    32    35    1
    24    32    40    1
    25    41    43   ar
    26    15    19    2
    27    42    43   ar
    28    16    22    2
    29    17    12    1
    30    17    19   ar
    31    17    20   ar
    32    18    19   ar
    33    18    22   ar
    34    18    23    1
    35     9    10    1
    36     9    11    1
    37    10    12    1
    38    11     5    1
    39    33    34    1
    40    33    35    1
    41    34    36    1
    42    35    37    1
    43    37    43    1
    44    20    21   ar
    45    21    22   ar
@<TRIPOS>MOLECULE
UDP-glaA
 43 45 0 0 0
SMALL
GASTEIGER

@<TRIPOS>ATOM
      1 P          22.8995   72.2246   -2.8980 P.3     1  UNL1        0.2189
      2 O          23.4982   70.7633   -3.2496 O.3     1  UNL1       -0.4371
      3 O          22.8894   72.5699   -1.4376 O.2     1  UNL1       -0.5170
      4 O          21.4599   72.2435   -3.6347 O.3     1  UNL1       -0.3112
      5 C          20.6463   71.0851   -3.5617 C.3     1  UNL1        0.1811
      6 O          18.7592   72.0456   -4.6977 O.3     1  UNL1       -0.3308
      7 O          17.0818   70.8810   -2.5020 O.3     1  UNL1       -0.3794
      8 O          16.7142   69.1048   -4.5381 O.3     1  UNL1       -0.3779
      9 C          18.2513   70.3491   -3.1240 C.3     1  UNL1        0.1713
     10 C          17.9220   69.8368   -4.5103 C.3     1  UNL1        0.1895
     11 C          19.1906   71.5089   -3.4277 C.3     1  UNL1        0.1764
     12 C          17.8430   71.1247   -5.3123 C.3     1  UNL1        0.2383
     13 H          17.3485   71.2314   -1.6351 H       1  UNL1        0.2105
     14 H          16.8083   68.3610   -3.9183 H       1  UNL1        0.2106
     15 O          16.0288   70.5385   -7.3957 O.2     1  UNL1       -0.2464
     16 O          19.3938   70.4323  -10.5428 O.2     1  UNL1       -0.2670
     17 N          18.2174   70.9394   -6.6852 N.ar    1  UNL1       -0.2551
     18 N          17.7057   70.4855   -8.9614 N.ar    1  UNL1       -0.2743
     19 C          17.2289   70.6474   -7.6539 C.ar    1  UNL1        0.3323
     20 C          19.5520   71.0471   -7.0603 C.ar    1  UNL1        0.0869
     21 C          19.9906   70.8905   -8.3112 C.ar    1  UNL1        0.0795
     22 C          19.0228   70.5828   -9.3828 C.ar    1  UNL1        0.2626
     23 H          17.0128   70.2744   -9.6744 H       1  UNL1        0.1734
     24 O          23.7910   73.2121   -3.8174 O.3     1  UNL1       -0.2703
     25 P          23.4545   74.6591   -4.4544 P.3     1  UNL1        0.2208
     26 O          22.4259   75.3047   -3.3861 O.3     1  UNL1       -0.4371
     27 O          22.9341   74.6064   -5.8623 O.2     1  UNL1       -0.5170
     28 O          24.8142   75.5098   -4.2777 O.3     1  UNL1       -0.2858
     29 O          27.0388   74.7670   -4.5919 O.3     1  UNL1       -0.3226
     30 O          27.5106   77.7429   -1.7282 O.3     1  UNL1       -0.3794
     31 O          25.2659   75.8867   -1.5801 O.3     1  UNL1       -0.3775
     32 O          29.1700   76.1830   -3.2913 O.3     1  UNL1       -0.3792
     33 C          26.9641   77.0666   -2.8570 C.3     1  UNL1        0.1718
     34 C          26.3872   75.7097   -2.4394 C.3     1  UNL1        0.1968
     35 C          28.0692   76.8679   -3.8981 C.3     1  UNL1        0.1723
     36 C          25.9530   74.9024   -3.6691 C.3     1  UNL1        0.2706
     37 C          27.5399   76.0207   -5.0531 C.3     1  UNL1        0.1830
     38 H          27.8655   78.5931   -2.0391 H       1  UNL1        0.2105
     39 H          24.9300   75.0039   -1.3507 H       1  UNL1        0.2106
     40 H          28.9229   75.2511   -3.1663 H       1  UNL1        0.2106
     41 O          29.3876   76.7817   -6.2822 O.co2   1  UNL1       -0.5466
     42 O          28.8006   74.5938   -6.5378 O.co2   1  UNL1       -0.5466
     43 C          28.6222   75.6922   -6.0317 C.2     1  UNL1        0.0799
@<TRIPOS>UNITY_ATOM_ATTR
41 1
charge -1
@<TRIPOS>BOND
     1     1     4    1
     2     1    24    1
     3     1     2    1
     4     1     3    2
     5    25    28    1
     6    25    24    1
     7    25    26    1
     8    25    27    2
     9     6    11    1
    10     6    12    1
    11    29    36    1
    12    29    37    1
    13     7     9    1
    14     7    13    1
    15     8    10    1
    16     8    14    1
    17     4     5    1
    18    28    36    1
    19    30    33    1
    20    30    38    1
    21    31    34    1
    22    31    39    1
    23    32    35    1
    24    32    40    1
    25    41    43   ar
    26    15    19    2
    27    42    43   ar
    28    16    22    2
    29    17    12    1
    30    17    19   ar
    31    17    20   ar
    32    18    19   ar
    33    18    22   ar
    34    18    23    1
    35     9    10    1
    36     9    11    1
    37    10    12    1
    38    11     5    1
    39    33    34    1
    40    33    35    1
    41    34    36    1
    42    35    37    1
    43    37    43    1
    44    20    21   ar
    45    21    22   ar
@<TRIPOS>MOLECULE
UDP-glaA
 43 45 0 0 0
SMALL
GASTEIGER

@<TRIPOS>ATOM
      1 P          22.9621   72.2601   -3.5042 P.3     1  UNL1        0.2189
      2 O          23.3769   70.7400   -3.1375 O.3     1  UNL1       -0.4371
      3 O          23.9098   72.9699   -4.4262 O.2     1  UNL1       -0.5170
      4 O          22.7270   72.9581   -2.0644 O.3     1  UNL1       -0.3112
      5 C          22.5970   72.1284   -0.9225 C.3     1  UNL1        0.1811
      6 O          21.3977   72.3141    1.1515 O.3     1  UNL1       -0.3308
      7 O          19.2545   73.6945   -0.4273 O.3     1  UNL1       -0.3794
      8 O          20.5515   75.7767    0.7636 O.3     1  UNL1       -0.3779
      9 C          20.6721   73.7559   -0.5827 C.3     1  UNL1        0.1713
     10 C          21.2854   74.5948    0.5185 C.3     1  UNL1        0.1895
     11 C          21.2377   72.3739   -0.2831 C.3     1  UNL1        0.1764
     12 C          21.2596   73.6364    1.6971 C.3     1  UNL1        0.2383
     13 H          18.9107   73.1166   -1.1297 H       1  UNL1        0.2105
     14 H          20.5233   76.2813   -0.0675 H       1  UNL1        0.2106
     15 O          23.7378   74.7980    1.0008 O.2     1  UNL1       -0.2464
     16 O          25.2997   74.5010    5.3264 O.2     1  UNL1       -0.2670
     17 N          22.3314   73.8748    2.6211 N.ar    1  UNL1       -0.2551
     18 N          24.5141   74.6489    3.1551 N.ar    1  UNL1       -0.2743
     19 C          23.5359   74.4628    2.1694 C.ar    1  UNL1        0.3323
     20 C          22.1833   73.5268    3.9591 C.ar    1  UNL1        0.0869
     21 C          23.1251   73.7111    4.8869 C.ar    1  UNL1        0.0795
     22 C          24.4132   74.3187    4.4977 C.ar    1  UNL1        0.2626
     23 H          25.3887   75.0695    2.8531 H       1  UNL1        0.1734
     24 O          21.4591   72.0971   -4.0784 O.3     1  UNL1       -0.2703
     25 P          20.3784   73.2028   -4.5496 P.3     1  UNL1        0.2208
     26 O          21.2826   74.3012   -5.3189 O.3     1  UNL1       -0.4371
     27 O          19.5412   73.7602   -3.4342 O.2     1  UNL1       -0.5170
     28 O          19.5344   72.4777   -5.7183 O.3     1  UNL1       -0.2858
     29 O          19.8875   70.3614   -4.7202 O.3     1  UNL1       -0.3226
     30 O          16.1663   69.8717   -6.5069 O.3     1  UNL1       -0.3794
     31 O          18.2968   71.3050   -7.8899 O.3     1  UNL1       -0.3775
     32 O          17.7628   68.4322   -4.7723 O.3     1  UNL1       -0.3792
     33 C          17.2390   70.5336   -5.8424 C.3     1  UNL1        0.1718
     34 C          18.4972   70.5232   -6.7171 C.3     1  UNL1        0.1968
     35 C          17.5165   69.8190   -4.5169 C.3     1  UNL1        0.1723
     36 C          19.7003   71.0786   -5.9447 C.3     1  UNL1        0.2706
     37 C          18.7534   70.4243   -3.8567 C.3     1  UNL1        0.1830
     38 H          15.3937   69.9002   -5.9172 H       1  UNL1        0.2105
     39 H          19.1202   71.2765   -8.4057 H       1  UNL1        0.2106
     40 H          18.6457   68.3434   -5.1695 H       1  UNL1        0.2106
     41 O          18.0584   69.0619   -2.0778 O.co2   1  UNL1       -0.5466
     42 O          20.2698   69.6090   -2.1639 O.co2   1  UNL1       -0.5466
     43 C          19.1384   69.6721   -2.6226 C.2     1  UNL1        0.0799
@<TRIPOS>UNITY_ATOM_ATTR
41 1
charge -1
@<TRIPOS>BOND
     1     1     4    1
     2     1    24    1
     3     1     2    1
     4     1     3    2
     5    25    28    1
     6    25    24    1
     7    25    26    1
     8    25    27    2
     9     6    11    1
    10     6    12    1
    11    29    36    1
    12    29    37    1
    13     7     9    1
    14     7    13    1
    15     8    10    1
    16     8    14    1
    17     4     5    1
    18    28    36    1
    19    30    33    1
    20    30    38    1
    21    31    34    1
    22    31    39    1
    23    32    35    1
    24    32    40    1
    25    41    43   ar
    26    15    19    2
    27    42    43   ar
    28    16    22    2
    29    17    12    1
    30    17    19   ar
    31    17    20   ar
    32    18    19   ar
    33    18    22   ar
    34    18    23    1
    35     9    10    1
    36     9    11    1
    37    10    12    1
    38    11     5    1
    39    33    34    1
    40    33    35    1
    41    34    36    1
    42    35    37    1
    43    37    43    1
    44    20    21   ar
    45    21    22   ar
@<TRIPOS>MOLECULE
UDP-glaA
 43 45 0 0 0
SMALL
GASTEIGER

@<TRIPOS>ATOM
      1 P          19.5520   73.8653   -3.0285 P.3     1  UNL1        0.2189
      2 O          18.7159   75.1433   -3.5623 O.3     1  UNL1       -0.4371
      3 O          18.7949   72.5696   -3.0266 O.2     1  UNL1       -0.5170
      4 O          20.1259   74.3462   -1.5950 O.3     1  UNL1       -0.3112
      5 C          20.3542   73.3687   -0.5942 C.3     1  UNL1        0.1811
      6 O          22.5917   73.2708    0.2767 O.3     1  UNL1       -0.3308
      7 O          22.9256   70.7899   -1.3741 O.3     1  UNL1       -0.3794
      8 O          22.4905   69.7884    1.1246 O.3     1  UNL1       -0.3779
      9 C          21.7744   71.2602   -0.6731 C.3     1  UNL1        0.1713
     10 C          21.9471   71.0556    0.8171 C.3     1  UNL1        0.1895
     11 C          21.7443   72.7788   -0.7849 C.3     1  UNL1        0.1764
     12 C          22.8800   72.1963    1.1865 C.3     1  UNL1        0.2383
     13 H          22.7866   70.9770   -2.3182 H       1  UNL1        0.2105
     14 H          21.8895   69.1160    0.7602 H       1  UNL1        0.2106
     15 O          20.4879   71.8540    2.6480 O.2     1  UNL1       -0.2464
     16 O          22.2201   74.0033    6.3384 O.2     1  UNL1       -0.2670
     17 N          22.6785   72.6558    2.5310 N.ar    1  UNL1       -0.2551
     18 N          21.3519   72.9250    4.4845 N.ar    1  UNL1       -0.2743
     19 C          21.4388   72.4342    3.1751 C.ar    1  UNL1        0.3323
     20 C          23.7030   73.3186    3.1978 C.ar    1  UNL1        0.0869
     21 C          23.6047   73.7800    4.4465 C.ar    1  UNL1        0.0795
     22 C          22.3430   73.5904    5.1893 C.ar    1  UNL1        0.2626
     23 H          20.4695   72.7775    4.9670 H       1  UNL1        0.1734
     24 O          20.8680   73.8751   -3.9683 O.3     1  UNL1       -0.2703
     25 P          21.4841   72.7413   -4.9418 P.3     1  UNL1        0.2208
     26 O          21.3517   71.3881   -4.0657 O.3     1  UNL1       -0.4371
     27 O          22.8760   73.0339   -5.4243 O.2     1  UNL1       -0.5170
     28 O          20.3920   72.5748   -6.1180 O.3     1  UNL1       -0.2858
     29 O          19.1629   70.5705   -6.3852 O.3     1  UNL1       -0.3226
     30 O          18.7733   72.3367  -10.1280 O.3     1  UNL1       -0.3794
     31 O          21.3221   72.4116   -8.7124 O.3     1  UNL1       -0.3775
     32 O          17.6923   70.1597   -8.8157 O.3     1  UNL1       -0.3792
     33 C          18.8971   72.2507   -8.7111 C.3     1  UNL1        0.1718
     34 C          20.2254   71.5884   -8.3299 C.3     1  UNL1        0.1968
     35 C          17.7264   71.4319   -8.1605 C.3     1  UNL1        0.1723
     36 C          20.2923   71.3357   -6.8186 C.3     1  UNL1        0.2706
     37 C          17.9167   71.2078   -6.6619 C.3     1  UNL1        0.1830
     38 H          17.9193   72.7589  -10.3228 H       1  UNL1        0.2105
     39 H          22.1381   71.9571   -8.4431 H       1  UNL1        0.2106
     40 H          18.4209   69.6155   -8.4718 H       1  UNL1        0.2106
     41 O          16.8631   70.3450   -4.7516 O.co2   1  UNL1       -0.5466
     42 O          16.1023   69.6187   -6.7741 O.co2   1  UNL1       -0.5466
     43 C          16.8637   70.3028   -6.1058 C.2     1  UNL1        0.0799
@<TRIPOS>UNITY_ATOM_ATTR
41 1
charge -1
@<TRIPOS>BOND
     1     1     4    1
     2     1    24    1
     3     1     2    1
     4     1     3    2
     5    25    28    1
     6    25    24    1
     7    25    26    1
     8    25    27    2
     9     6    11    1
    10     6    12    1
    11    29    36    1
    12    29    37    1
    13     7     9    1
    14     7    13    1
    15     8    10    1
    16     8    14    1
    17     4     5    1
    18    28    36    1
    19    30    33    1
    20    30    38    1
    21    31    34    1
    22    31    39    1
    23    32    35    1
    24    32    40    1
    25    41    43   ar
    26    15    19    2
    27    42    43   ar
    28    16    22    2
    29    17    12    1
    30    17    19   ar
    31    17    20   ar
    32    18    19   ar
    33    18    22   ar
    34    18    23    1
    35     9    10    1
    36     9    11    1
    37    10    12    1
    38    11     5    1
    39    33    34    1
    40    33    35    1
    41    34    36    1
    42    35    37    1
    43    37    43    1
    44    20    21   ar
    45    21    22   ar
@<TRIPOS>MOLECULE
UDP-glaA
 43 45 0 0 0
SMALL
GASTEIGER

@<TRIPOS>ATOM
      1 P          19.3995   70.9902   -4.2720 P.3     1  UNL1        0.2189
      2 O          18.7557   69.5722   -3.8335 O.3     1  UNL1       -0.4371
      3 O          18.5553   72.1916   -3.9619 O.2     1  UNL1       -0.5170
      4 O          19.7788   70.7808   -5.8301 O.3     1  UNL1       -0.3112
      5 C          18.7526   70.9064   -6.7999 C.3     1  UNL1        0.1811
      6 O          18.3090   71.6991   -9.0246 O.3     1  UNL1       -0.3308
      7 O          21.2048   72.4707   -9.1259 O.3     1  UNL1       -0.3794
      8 O          19.9722   74.8493   -8.6173 O.3     1  UNL1       -0.3779
      9 C          20.2967   72.5137   -8.0254 C.3     1  UNL1        0.1713
     10 C          19.3293   73.6672   -8.1876 C.3     1  UNL1        0.1895
     11 C          19.3738   71.3066   -8.1306 C.3     1  UNL1        0.1764
     12 C          18.3582   73.1219   -9.2208 C.3     1  UNL1        0.2383
     13 H          21.7778   71.6954   -8.9987 H       1  UNL1        0.2105
     14 H          20.6510   75.0701   -7.9565 H       1  UNL1        0.2106
     15 O          16.8986   74.3753  -11.2882 O.2     1  UNL1       -0.2464
     16 O          13.2955   75.1527   -8.5219 O.2     1  UNL1       -0.2670
     17 N          17.0367   73.6604   -9.0689 N.ar    1  UNL1       -0.2551
     18 N          15.1056   74.7621   -9.9092 N.ar    1  UNL1       -0.2743
     19 C          16.3915   74.2706  -10.1699 C.ar    1  UNL1        0.3323
     20 C          16.3931   73.5811   -7.8389 C.ar    1  UNL1        0.0869
     21 C          15.1667   74.0541   -7.6064 C.ar    1  UNL1        0.0795
     22 C          14.4244   74.7069   -8.7030 C.ar    1  UNL1        0.2626
     23 H          14.6229   75.2055  -10.6861 H       1  UNL1        0.1734
     24 O          20.8423   70.9743   -3.5418 O.3     1  UNL1       -0.2703
     25 P          22.0107   72.0894   -3.4779 P.3     1  UNL1        0.2208
     26 O          21.5872   73.1372   -4.6350 O.3     1  UNL1       -0.4371
     27 O          23.3993   71.5354   -3.6210 O.2     1  UNL1       -0.5170
     28 O          21.7471   72.8790   -2.0955 O.3     1  UNL1       -0.2858
     29 O          21.2066   71.1631   -0.5584 O.3     1  UNL1       -0.3226
     30 O          21.3344   74.5186    1.8917 O.3     1  UNL1       -0.3794
     31 O          20.1202   74.6628   -0.7561 O.3     1  UNL1       -0.3775
     32 O          21.1201   71.7871    2.2419 O.3     1  UNL1       -0.3792
     33 C          21.6776   73.6532    0.8130 C.3     1  UNL1        0.1718
     34 C          20.4715   73.4443   -0.1089 C.3     1  UNL1        0.1968
     35 C          22.1396   72.3096    1.3838 C.3     1  UNL1        0.1723
     36 C          20.7783   72.3829   -1.1727 C.3     1  UNL1        0.2706
     37 C          22.3760   71.3217    0.2435 C.3     1  UNL1        0.1830
     38 H          22.1247   74.6201    2.4492 H       1  UNL1        0.2105
     39 H          19.3606   74.4796   -1.3342 H       1  UNL1        0.2106
     40 H          20.3880   71.4632    1.6902 H       1  UNL1        0.2106
     41 O          23.4115   70.0397    1.9132 O.co2   1  UNL1       -0.5466
     42 O          22.3791   68.9073    0.2254 O.co2   1  UNL1       -0.5466
     43 C          22.7039   69.9572    0.7608 C.2     1  UNL1        0.0799
@<TRIPOS>UNITY_ATOM_ATTR
41 1
charge -1
@<TRIPOS>BOND
     1     1     4    1
     2     1    24    1
     3     1     2    1
     4     1     3    2
     5    25    28    1
     6    25    24    1
     7    25    26    1
     8    25    27    2
     9     6    11    1
    10     6    12    1
    11    29    36    1
    12    29    37    1
    13     7     9    1
    14     7    13    1
    15     8    10    1
    16     8    14    1
    17     4     5    1
    18    28    36    1
    19    30    33    1
    20    30    38    1
    21    31    34    1
    22    31    39    1
    23    32    35    1
    24    32    40    1
    25    41    43   ar
    26    15    19    2
    27    42    43   ar
    28    16    22    2
    29    17    12    1
    30    17    19   ar
    31    17    20   ar
    32    18    19   ar
    33    18    22   ar
    34    18    23    1
    35     9    10    1
    36     9    11    1
    37    10    12    1
    38    11     5    1
    39    33    34    1
    40    33    35    1
    41    34    36    1
    42    35    37    1
    43    37    43    1
    44    20    21   ar
    45    21    22   ar
@<TRIPOS>MOLECULE
UDP-glaA
 43 45 0 0 0
SMALL
GASTEIGER

@<TRIPOS>ATOM
      1 P          24.4991   74.5680   -3.6129 P.3     1  UNL1        0.2189
      2 O          24.6052   74.6325   -1.9998 O.3     1  UNL1       -0.4371
      3 O          23.7751   75.7200   -4.2462 O.2     1  UNL1       -0.5170
      4 O          23.8798   73.1028   -3.9045 O.3     1  UNL1       -0.3112
      5 C          22.4718   72.9688   -3.9983 C.3     1  UNL1        0.1811
      6 O          20.4649   72.6351   -2.7196 O.3     1  UNL1       -0.3308
      7 O          22.2455   71.5777   -0.5510 O.3     1  UNL1       -0.3794
      8 O          21.2593   69.2980   -1.6763 O.3     1  UNL1       -0.3779
      9 C          22.3681   71.4421   -1.9667 C.3     1  UNL1        0.1713
     10 C          21.3510   70.4496   -2.4893 C.3     1  UNL1        0.1895
     11 C          21.9010   72.7434   -2.6055 C.3     1  UNL1        0.1764
     12 C          20.0741   71.2727   -2.4820 C.3     1  UNL1        0.2383
     13 H          22.8881   72.2502   -0.2675 H       1  UNL1        0.2105
     14 H          22.1420   68.8904   -1.6457 H       1  UNL1        0.2106
     15 O          18.3216   69.0687   -2.2663 O.2     1  UNL1       -0.2464
     16 O          16.5870   69.8029   -6.4723 O.2     1  UNL1       -0.2670
     17 N          19.1536   70.8656   -3.5049 N.ar    1  UNL1       -0.2551
     18 N          17.4594   69.4354   -4.3611 N.ar    1  UNL1       -0.2743
     19 C          18.3177   69.7436   -3.2973 C.ar    1  UNL1        0.3323
     20 C          19.0857   71.5754   -4.6987 C.ar    1  UNL1        0.0869
     21 C          18.2616   71.2692   -5.7032 C.ar    1  UNL1        0.0795
     22 C          17.3562   70.1111   -5.5671 C.ar    1  UNL1        0.2626
     23 H          16.8496   68.6322   -4.2343 H       1  UNL1        0.1734
     24 O          26.0416   74.4081   -4.0713 O.3     1  UNL1       -0.2703
     25 P          27.0477   75.4495   -4.7896 P.3     1  UNL1        0.2208
     26 O          27.7086   76.2447   -3.5459 O.3     1  UNL1       -0.4371
     27 O          26.3927   76.3328   -5.8126 O.2     1  UNL1       -0.5170
     28 O          28.2419   74.5313   -5.3683 O.3     1  UNL1       -0.2858
     29 O          30.6013   74.7065   -5.3258 O.3     1  UNL1       -0.3226
     30 O          29.9091   73.1896   -9.1335 O.3     1  UNL1       -0.3794
     31 O          28.1834   75.2653   -8.0292 O.3     1  UNL1       -0.3775
     32 O          32.1095   73.6548   -7.5298 O.3     1  UNL1       -0.3792
     33 C          29.7162   73.4019   -7.7378 C.3     1  UNL1        0.1718
     34 C          29.4289   74.8807   -7.4569 C.3     1  UNL1        0.1968
     35 C          30.9785   72.9624   -6.9909 C.3     1  UNL1        0.1723
     36 C          29.3904   75.1494   -5.9473 C.3     1  UNL1        0.2706
     37 C          30.8472   73.3133   -5.5105 C.3     1  UNL1        0.1830
     38 H          30.0900   72.2431   -9.2640 H       1  UNL1        0.2105
     39 H          28.0405   76.2032   -7.8180 H       1  UNL1        0.2106
     40 H          32.0793   74.5782   -7.2273 H       1  UNL1        0.2106
     41 O          32.6013   71.8066   -5.1144 O.co2   1  UNL1       -0.5466
     42 O          32.6345   73.7672   -3.9518 O.co2   1  UNL1       -0.5466
     43 C          32.1099   73.0197   -4.7645 C.2     1  UNL1        0.0799
@<TRIPOS>UNITY_ATOM_ATTR
41 1
charge -1
@<TRIPOS>BOND
     1     1     4    1
     2     1    24    1
     3     1     2    1
     4     1     3    2
     5    25    28    1
     6    25    24    1
     7    25    26    1
     8    25    27    2
     9     6    11    1
    10     6    12    1
    11    29    36    1
    12    29    37    1
    13     7     9    1
    14     7    13    1
    15     8    10    1
    16     8    14    1
    17     4     5    1
    18    28    36    1
    19    30    33    1
    20    30    38    1
    21    31    34    1
    22    31    39    1
    23    32    35    1
    24    32    40    1
    25    41    43   ar
    26    15    19    2
    27    42    43   ar
    28    16    22    2
    29    17    12    1
    30    17    19   ar
    31    17    20   ar
    32    18    19   ar
    33    18    22   ar
    34    18    23    1
    35     9    10    1
    36     9    11    1
    37    10    12    1
    38    11     5    1
    39    33    34    1
    40    33    35    1
    41    34    36    1
    42    35    37    1
    43    37    43    1
    44    20    21   ar
    45    21    22   ar
@<TRIPOS>MOLECULE
UDP-glaA
 43 45 0 0 0
SMALL
GASTEIGER

@<TRIPOS>ATOM
      1 P          23.0771   72.5004   -3.5156 P.3     1  UNL1        0.2189
      2 O          23.3715   70.9669   -3.0924 O.3     1  UNL1       -0.4371
      3 O          24.2967   73.3635   -3.6563 O.2     1  UNL1       -0.5170
      4 O          21.9833   73.0000   -2.4341 O.3     1  UNL1       -0.3112
      5 C          22.2723   72.8414   -1.0555 C.3     1  UNL1        0.1811
      6 O          21.2865   72.7495    1.1340 O.3     1  UNL1       -0.3308
      7 O          18.9955   74.2891   -0.0374 O.3     1  UNL1       -0.3794
      8 O          20.4043   76.2221    1.2721 O.3     1  UNL1       -0.3779
      9 C          20.3904   74.3880   -0.3238 C.3     1  UNL1        0.1713
     10 C          21.1105   75.0899    0.8082 C.3     1  UNL1        0.1895
     11 C          20.9838   72.9868   -0.2585 C.3     1  UNL1        0.1764
     12 C          21.2032   73.9910    1.8531 C.3     1  UNL1        0.2383
     13 H          18.5833   73.7994   -0.7695 H       1  UNL1        0.2105
     14 H          20.2928   76.8266    0.5183 H       1  UNL1        0.2106
     15 O          21.3617   73.0763    4.5202 O.2     1  UNL1       -0.2464
     16 O          25.7009   74.5637    4.9652 O.2     1  UNL1       -0.2670
     17 N          22.3620   74.1255    2.6888 N.ar    1  UNL1       -0.2551
     18 N          23.5222   73.8181    4.7402 N.ar    1  UNL1       -0.2743
     19 C          22.3380   73.6329    4.0145 C.ar    1  UNL1        0.3323
     20 C          23.5064   74.7404    2.1932 C.ar    1  UNL1        0.0869
     21 C          24.6277   74.9089    2.8976 C.ar    1  UNL1        0.0795
     22 C          24.6853   74.4237    4.2907 C.ar    1  UNL1        0.2626
     23 H          23.5276   73.4722    5.6960 H       1  UNL1        0.1734
     24 O          22.2045   72.3419   -4.8679 O.3     1  UNL1       -0.2703
     25 P          21.8748   73.3975   -6.0468 P.3     1  UNL1        0.2208
     26 O          22.9545   73.0242   -7.1917 O.3     1  UNL1       -0.4371
     27 O          21.9037   74.8349   -5.6124 O.2     1  UNL1       -0.5170
     28 O          20.4582   72.9108   -6.6471 O.3     1  UNL1       -0.2858
     29 O          19.3926   70.8029   -6.7917 O.3     1  UNL1       -0.3226
     30 O          18.3432   72.5596  -10.4100 O.3     1  UNL1       -0.3794
     31 O          21.0417   72.8592   -9.3451 O.3     1  UNL1       -0.3775
     32 O          17.6520   70.2791   -9.0131 O.3     1  UNL1       -0.3792
     33 C          18.6639   72.4725   -9.0244 C.3     1  UNL1        0.1718
     34 C          20.0862   71.9336   -8.8379 C.3     1  UNL1        0.1968
     35 C          17.6576   71.5427   -8.3407 C.3     1  UNL1        0.1723
     36 C          20.3788   71.6743   -7.3549 C.3     1  UNL1        0.2706
     37 C          18.0676   71.3235   -6.8861 C.3     1  UNL1        0.1830
     38 H          17.4357   72.9019  -10.4802 H       1  UNL1        0.2105
     39 H          21.9245   72.4804   -9.1968 H       1  UNL1        0.2106
     40 H          18.4668   69.8022   -8.7812 H       1  UNL1        0.2106
     41 O          17.6879   69.9758   -5.0037 O.co2   1  UNL1       -0.5466
     42 O          16.1520   69.8676   -6.6849 O.co2   1  UNL1       -0.5466
     43 C          17.1861   70.3191   -6.2145 C.2     1  UNL1        0.0799
@<TRIPOS>UNITY_ATOM_ATTR
41 1
charge -1
@<TRIPOS>BOND
     1     1     4    1
     2     1    24    1
     3     1     2    1
     4     1     3    2
     5    25    28    1
     6    25    24    1
     7    25    26    1
     8    25    27    2
     9     6    11    1
    10     6    12    1
    11    29    36    1
    12    29    37    1
    13     7     9    1
    14     7    13    1
    15     8    10    1
    16     8    14    1
    17     4     5    1
    18    28    36    1
    19    30    33    1
    20    30    38    1
    21    31    34    1
    22    31    39    1
    23    32    35    1
    24    32    40    1
    25    41    43   ar
    26    15    19    2
    27    42    43   ar
    28    16    22    2
    29    17    12    1
    30    17    19   ar
    31    17    20   ar
    32    18    19   ar
    33    18    22   ar
    34    18    23    1
    35     9    10    1
    36     9    11    1
    37    10    12    1
    38    11     5    1
    39    33    34    1
    40    33    35    1
    41    34    36    1
    42    35    37    1
    43    37    43    1
    44    20    21   ar
    45    21    22   ar
@<TRIPOS>MOLECULE
UDP-glaA
 43 45 0 0 0
SMALL
GASTEIGER

@<TRIPOS>ATOM
      1 P          22.8796   75.0007   -8.4459 P.3     1  UNL1        0.2189
      2 O          23.7677   73.8444   -9.1470 O.3     1  UNL1       -0.4371
      3 O          23.3702   75.4469   -7.0997 O.2     1  UNL1       -0.5170
      4 O          21.3733   74.4133   -8.4858 O.3     1  UNL1       -0.3112
      5 C          21.1149   73.1683   -7.8593 C.3     1  UNL1        0.1811
      6 O          20.0047   71.0544   -8.1297 O.3     1  UNL1       -0.3308
      7 O          18.5467   72.3249  -10.4213 O.3     1  UNL1       -0.3794
      8 O          16.7024   72.4215   -8.4151 O.3     1  UNL1       -0.3779
      9 C          18.9590   72.9013   -9.1821 C.3     1  UNL1        0.1713
     10 C          18.0687   72.4186   -8.0565 C.3     1  UNL1        0.1895
     11 C          20.3047   72.2949   -8.8066 C.3     1  UNL1        0.1764
     12 C          18.6045   71.0189   -7.8083 C.3     1  UNL1        0.2383
     13 H          19.1678   72.6309  -11.1041 H       1  UNL1        0.2105
     14 H          16.4668   73.3320   -8.6633 H       1  UNL1        0.2106
     15 O          16.2200   69.9665   -6.7211 O.2     1  UNL1       -0.2464
     16 O          18.1230   69.4720   -2.5530 O.2     1  UNL1       -0.2670
     17 N          18.4489   70.6065   -6.4426 N.ar    1  UNL1       -0.2551
     18 N          17.1690   69.7214   -4.6461 N.ar    1  UNL1       -0.2743
     19 C          17.2091   70.0920   -5.9968 C.ar    1  UNL1        0.3323
     20 C          19.5180   70.7139   -5.5601 C.ar    1  UNL1        0.0869
     21 C          19.4642   70.3558   -4.2753 C.ar    1  UNL1        0.0795
     22 C          18.2056   69.8099   -3.7299 C.ar    1  UNL1        0.2626
     23 H          16.2874   69.3494   -4.3034 H       1  UNL1        0.1734
     24 O          22.8459   76.1631   -9.5696 O.3     1  UNL1       -0.2703
     25 P          23.9419   77.2809   -9.9721 P.3     1  UNL1        0.2208
     26 O          25.2809   76.7759   -9.2182 O.3     1  UNL1       -0.4371
     27 O          23.5368   78.6885   -9.6400 O.2     1  UNL1       -0.5170
     28 O          24.2330   77.0228  -11.5382 O.3     1  UNL1       -0.2858
     29 O          24.9295   74.9555  -12.4550 O.3     1  UNL1       -0.3226
     30 O          26.3374   77.6739  -15.2671 O.3     1  UNL1       -0.3794
     31 O          26.5452   78.2503  -12.4157 O.3     1  UNL1       -0.3775
     32 O          26.1172   74.9276  -15.0679 O.3     1  UNL1       -0.3792
     33 C          25.4730   77.1183  -14.2799 C.3     1  UNL1        0.1718
     34 C          26.2109   76.9716  -12.9449 C.3     1  UNL1        0.1968
     35 C          24.9857   75.7493  -14.7623 C.3     1  UNL1        0.1723
     36 C          25.3461   76.2187  -11.9262 C.3     1  UNL1        0.2706
     37 C          24.1730   75.0757  -13.6587 C.3     1  UNL1        0.1830
     38 H          25.8305   77.7461  -16.0937 H       1  UNL1        0.2105
     39 H          27.0006   78.1074  -11.5689 H       1  UNL1        0.2106
     40 H          26.5290   74.6462  -14.2333 H       1  UNL1        0.2106
     41 O          23.4947   73.6084  -15.3589 O.co2   1  UNL1       -0.5466
     42 O          23.7383   72.7330  -13.2681 O.co2   1  UNL1       -0.5466
     43 C          23.7855   73.6817  -14.0376 C.2     1  UNL1        0.0799
@<TRIPOS>UNITY_ATOM_ATTR
41 1
charge -1
@<TRIPOS>BOND
     1     1     4    1
     2     1    24    1
     3     1     2    1
     4     1     3    2
     5    25    28    1
     6    25    24    1
     7    25    26    1
     8    25    27    2
     9     6    11    1
    10     6    12    1
    11    29    36    1
    12    29    37    1
    13     7     9    1
    14     7    13    1
    15     8    10    1
    16     8    14    1
    17     4     5    1
    18    28    36    1
    19    30    33    1
    20    30    38    1
    21    31    34    1
    22    31    39    1
    23    32    35    1
    24    32    40    1
    25    41    43   ar
    26    15    19    2
    27    42    43   ar
    28    16    22    2
    29    17    12    1
    30    17    19   ar
    31    17    20   ar
    32    18    19   ar
    33    18    22   ar
    34    18    23    1
    35     9    10    1
    36     9    11    1
    37    10    12    1
    38    11     5    1
    39    33    34    1
    40    33    35    1
    41    34    36    1
    42    35    37    1
    43    37    43    1
    44    20    21   ar
    45    21    22   ar
@<TRIPOS>MOLECULE
UDP-glaA
 43 45 0 0 0
SMALL
GASTEIGER

@<TRIPOS>ATOM
      1 P          22.6363   72.1156   -3.5204 P.3     1  UNL1        0.2189
      2 O          23.4783   70.7981   -3.1050 O.3     1  UNL1       -0.4371
      3 O          23.0385   72.7386   -4.8251 O.2     1  UNL1       -0.5170
      4 O          22.7447   73.0729   -2.2214 O.3     1  UNL1       -0.3112
      5 C          22.8294   72.4705   -0.9411 C.3     1  UNL1        0.1811
      6 O          21.7544   72.5793    1.2052 O.3     1  UNL1       -0.3308
      7 O          19.4744   73.9142   -0.2130 O.3     1  UNL1       -0.3794
      8 O          20.7737   76.0176    0.9373 O.3     1  UNL1       -0.3779
      9 C          20.8771   74.0260   -0.4531 C.3     1  UNL1        0.1713
     10 C          21.5292   74.8656    0.6250 C.3     1  UNL1        0.1895
     11 C          21.5048   72.6587   -0.2155 C.3     1  UNL1        0.1764
     12 C          21.6071   73.8864    1.7840 C.3     1  UNL1        0.2383
     13 H          19.1071   73.3374   -0.9043 H       1  UNL1        0.2105
     14 H          20.6781   76.5355    0.1195 H       1  UNL1        0.2106
     15 O          24.0007   75.1381    0.9599 O.2     1  UNL1       -0.2464
     16 O          25.8322   74.8231    5.1771 O.2     1  UNL1       -0.2670
     17 N          22.7253   74.1445    2.6455 N.ar    1  UNL1       -0.2551
     18 N          24.9114   74.9800    3.0603 N.ar    1  UNL1       -0.2743
     19 C          23.8811   74.7782    2.1324 C.ar    1  UNL1        0.3323
     20 C          22.6701   73.7708    3.9837 C.ar    1  UNL1        0.0869
     21 C          23.6606   73.9706    4.8559 C.ar    1  UNL1        0.0795
     22 C          24.9029   74.6254    4.4004 C.ar    1  UNL1        0.2626
     23 H          25.7523   75.4334    2.7134 H       1  UNL1        0.1734
     24 O          21.1047   71.5995   -3.4643 O.3     1  UNL1       -0.2703
     25 P          19.7112   72.3888   -3.6826 P.3     1  UNL1        0.2208
     26 O          20.1851   73.9129   -3.9444 O.3     1  UNL1       -0.4371
     27 O          18.7301   72.2294   -2.5566 O.2     1  UNL1       -0.5170
     28 O          19.1714   71.8772   -5.1146 O.3     1  UNL1       -0.2858
     29 O          18.1366   72.8971   -6.9823 O.3     1  UNL1       -0.3226
     30 O          16.0180   69.3362   -6.6496 O.3     1  UNL1       -0.3794
     31 O          16.7517   70.8517   -4.2683 O.3     1  UNL1       -0.3775
     32 O          16.1791   71.4115   -8.4655 O.3     1  UNL1       -0.3792
     33 C          17.1284   70.2269   -6.5865 C.3     1  UNL1        0.1718
     34 C          16.8484   71.3607   -5.5944 C.3     1  UNL1        0.1968
     35 C          17.3812   70.8028   -7.9825 C.3     1  UNL1        0.1723
     36 C          17.9612   72.4149   -5.6460 C.3     1  UNL1        0.2706
     37 C          18.4750   71.8661   -7.9086 C.3     1  UNL1        0.1830
     38 H          16.2380   68.6380   -7.2897 H       1  UNL1        0.2105
     39 H          16.5841   71.6045   -3.6766 H       1  UNL1        0.2106
     40 H          16.0433   72.2479   -7.9888 H       1  UNL1        0.2106
     41 O          18.1358   73.7948   -9.2004 O.co2   1  UNL1       -0.5466
     42 O          19.2232   72.0563  -10.1964 O.co2   1  UNL1       -0.5466
     43 C          18.6652   72.5479   -9.2262 C.2     1  UNL1        0.0799
@<TRIPOS>UNITY_ATOM_ATTR
41 1
charge -1
@<TRIPOS>BOND
     1     1     4    1
     2     1    24    1
     3     1     2    1
     4     1     3    2
     5    25    28    1
     6    25    24    1
     7    25    26    1
     8    25    27    2
     9     6    11    1
    10     6    12    1
    11    29    36    1
    12    29    37    1
    13     7     9    1
    14     7    13    1
    15     8    10    1
    16     8    14    1
    17     4     5    1
    18    28    36    1
    19    30    33    1
    20    30    38    1
    21    31    34    1
    22    31    39    1
    23    32    35    1
    24    32    40    1
    25    41    43   ar
    26    15    19    2
    27    42    43   ar
    28    16    22    2
    29    17    12    1
    30    17    19   ar
    31    17    20   ar
    32    18    19   ar
    33    18    22   ar
    34    18    23    1
    35     9    10    1
    36     9    11    1
    37    10    12    1
    38    11     5    1
    39    33    34    1
    40    33    35    1
    41    34    36    1
    42    35    37    1
    43    37    43    1
    44    20    21   ar
    45    21    22   ar
@<TRIPOS>MOLECULE
UDP-glaA
 43 45 0 0 0
SMALL
GASTEIGER

@<TRIPOS>ATOM
      1 P          22.6050   74.0410   -5.5289 P.3     1  UNL1        0.2189
      2 O          21.0906   74.3144   -5.0297 O.3     1  UNL1       -0.4371
      3 O          23.4774   75.2599   -5.6010 O.2     1  UNL1       -0.5170
      4 O          22.4178   73.2277   -6.9142 O.3     1  UNL1       -0.3112
      5 C          21.1510   73.2547   -7.5498 C.3     1  UNL1        0.1811
      6 O          19.1842   71.9712   -7.0411 O.3     1  UNL1       -0.3308
      7 O          20.4124   69.7858   -8.6863 O.3     1  UNL1       -0.3794
      8 O          18.5961   70.8751  -10.4039 O.3     1  UNL1       -0.3779
      9 C          20.4626   71.1992   -8.8802 C.3     1  UNL1        0.1713
     10 C          19.1321   71.7062   -9.3952 C.3     1  UNL1        0.1895
     11 C          20.5461   71.8586   -7.5098 C.3     1  UNL1        0.1764
     12 C          18.2865   71.7122   -8.1331 C.3     1  UNL1        0.2383
     13 H          21.2708   69.5129   -8.3200 H       1  UNL1        0.2105
     14 H          19.2448   70.8378  -11.1278 H       1  UNL1        0.2106
     15 O          15.9601   71.6840   -6.5323 O.2     1  UNL1       -0.2464
     16 O          14.4682   75.6659   -8.3091 O.2     1  UNL1       -0.2670
     17 N          17.2739   72.7287   -8.1565 N.ar    1  UNL1       -0.2551
     18 N          15.2185   73.6666   -7.4185 N.ar    1  UNL1       -0.2743
     19 C          16.1435   72.6196   -7.3132 C.ar    1  UNL1        0.3323
     20 C          17.4061   73.8193   -9.0089 C.ar    1  UNL1        0.0869
     21 C          16.5155   74.8097   -9.0974 C.ar    1  UNL1        0.0795
     22 C          15.3063   74.7714   -8.2513 C.ar    1  UNL1        0.2626
     23 H          14.3976   73.6088   -6.8219 H       1  UNL1        0.1734
     24 O          23.1236   72.9011   -4.5058 O.3     1  UNL1       -0.2703
     25 P          22.3080   71.8674   -3.5683 P.3     1  UNL1        0.2208
     26 O          23.4287   70.7761   -3.1570 O.3     1  UNL1       -0.4371
     27 O          21.0831   71.2853   -4.2136 O.2     1  UNL1       -0.5170
     28 O          22.0193   72.6884   -2.2094 O.3     1  UNL1       -0.2858
     29 O          21.4122   71.0940   -0.5695 O.3     1  UNL1       -0.3226
     30 O          21.2682   74.6503    1.5779 O.3     1  UNL1       -0.3794
     31 O          20.2505   74.5260   -1.1524 O.3     1  UNL1       -0.3775
     32 O          21.1014   71.9534    2.1514 O.3     1  UNL1       -0.3792
     33 C          21.7134   73.7071    0.6071 C.3     1  UNL1        0.1718
     34 C          20.5851   73.3800   -0.3769 C.3     1  UNL1        0.1968
     35 C          22.1675   72.4336    1.3257 C.3     1  UNL1        0.1723
     36 C          20.9983   72.2417   -1.3182 C.3     1  UNL1        0.2706
     37 C          22.5142   71.3597    0.2969 C.3     1  UNL1        0.1830
     38 H          22.0120   74.8255    2.1794 H       1  UNL1        0.2105
     39 H          19.5410   74.2687   -1.7650 H       1  UNL1        0.2106
     40 H          20.4212   71.5593    1.5794 H       1  UNL1        0.2106
     41 O          22.3188   69.0223    0.2505 O.co2   1  UNL1       -0.5466
     42 O          23.4869   69.9322    1.9839 O.co2   1  UNL1       -0.5466
     43 C          22.8391   70.0563    0.9546 C.2     1  UNL1        0.0799
@<TRIPOS>UNITY_ATOM_ATTR
41 1
charge -1
@<TRIPOS>BOND
     1     1     4    1
     2     1    24    1
     3     1     2    1
     4     1     3    2
     5    25    28    1
     6    25    24    1
     7    25    26    1
     8    25    27    2
     9     6    11    1
    10     6    12    1
    11    29    36    1
    12    29    37    1
    13     7     9    1
    14     7    13    1
    15     8    10    1
    16     8    14    1
    17     4     5    1
    18    28    36    1
    19    30    33    1
    20    30    38    1
    21    31    34    1
    22    31    39    1
    23    32    35    1
    24    32    40    1
    25    41    43   ar
    26    15    19    2
    27    42    43   ar
    28    16    22    2
    29    17    12    1
    30    17    19   ar
    31    17    20   ar
    32    18    19   ar
    33    18    22   ar
    34    18    23    1
    35     9    10    1
    36     9    11    1
    37    10    12    1
    38    11     5    1
    39    33    34    1
    40    33    35    1
    41    34    36    1
    42    35    37    1
    43    37    43    1
    44    20    21   ar
    45    21    22   ar
@<TRIPOS>MOLECULE
UDP-glaA
 43 45 0 0 0
SMALL
GASTEIGER

@<TRIPOS>ATOM
      1 P          22.5002   72.5261   -4.0479 P.3     1  UNL1        0.2189
      2 O          22.3603   71.0677   -3.3617 O.3     1  UNL1       -0.4371
      3 O          23.9045   73.0449   -4.1514 O.2     1  UNL1       -0.5170
      4 O          21.4692   73.4505   -3.2123 O.3     1  UNL1       -0.3112
      5 C          20.0926   73.1126   -3.2258 C.3     1  UNL1        0.1811
      6 O          19.3940   73.0984   -0.9267 O.3     1  UNL1       -0.3308
      7 O          19.1030   76.0710   -1.1914 O.3     1  UNL1       -0.3794
      8 O          21.4921   75.8191    0.0988 O.3     1  UNL1       -0.3779
      9 C          20.0732   75.2028   -1.7767 C.3     1  UNL1        0.1713
     10 C          21.0758   74.7564   -0.7336 C.3     1  UNL1        0.1895
     11 C          19.3791   73.8945   -2.1321 C.3     1  UNL1        0.1764
     12 C          20.2942   73.6948    0.0216 C.3     1  UNL1        0.2383
     13 H          18.4616   76.2989   -1.8858 H       1  UNL1        0.2105
     14 H          21.8829   76.5025   -0.4725 H       1  UNL1        0.2106
     15 O          21.6124   73.8770    2.5125 O.2     1  UNL1       -0.2464
     16 O          23.5260   69.7147    2.0108 O.2     1  UNL1       -0.2670
     17 N          21.1424   72.6736    0.5666 N.ar    1  UNL1       -0.2551
     18 N          22.5648   71.8044    2.2608 N.ar    1  UNL1       -0.2743
     19 C          21.7580   72.8641    1.8258 C.ar    1  UNL1        0.3323
     20 C          21.3575   71.4984   -0.1448 C.ar    1  UNL1        0.0869
     21 C          22.1292   70.4972    0.2837 C.ar    1  UNL1        0.0795
     22 C          22.8093   70.6169    1.5886 C.ar    1  UNL1        0.2626
     23 H          23.0180   71.9197    3.1632 H       1  UNL1        0.1734
     24 O          21.7472   72.3330   -5.4660 O.3     1  UNL1       -0.2703
     25 P          21.3564   73.4025   -6.6132 P.3     1  UNL1        0.2208
     26 O          22.1232   72.8401   -7.9216 O.3     1  UNL1       -0.4371
     27 O          21.6853   74.8262   -6.2659 O.2     1  UNL1       -0.5170
     28 O          19.7931   73.1325   -6.9085 O.3     1  UNL1       -0.2858
     29 O          19.0855   70.9210   -6.4522 O.3     1  UNL1       -0.3226
     30 O          15.7846   72.5028   -8.4223 O.3     1  UNL1       -0.3794
     31 O          18.4866   73.1042   -9.3406 O.3     1  UNL1       -0.3775
     32 O          16.3762   70.1821   -7.0460 O.3     1  UNL1       -0.3792
     33 C          16.9343   72.4706   -7.5812 C.3     1  UNL1        0.1718
     34 C          18.1783   72.0894   -8.3909 C.3     1  UNL1        0.1968
     35 C          16.7025   71.4488   -6.4647 C.3     1  UNL1        0.1723
     36 C          19.3856   71.8844   -7.4675 C.3     1  UNL1        0.2706
     37 C          17.9765   71.2958   -5.6365 C.3     1  UNL1        0.1830
     38 H          15.0228   72.7452   -7.8687 H       1  UNL1        0.2105
     39 H          19.2838   72.8240   -9.8209 H       1  UNL1        0.2106
     40 H          17.1853   69.7983   -7.4245 H       1  UNL1        0.2106
     41 O          16.5471   70.0876   -4.2219 O.co2   1  UNL1       -0.5466
     42 O          18.7568   69.5283   -4.1885 O.co2   1  UNL1       -0.5466
     43 C          17.8378   70.2129   -4.6143 C.2     1  UNL1        0.0799
@<TRIPOS>UNITY_ATOM_ATTR
41 1
charge -1
@<TRIPOS>BOND
     1     1     4    1
     2     1    24    1
     3     1     2    1
     4     1     3    2
     5    25    28    1
     6    25    24    1
     7    25    26    1
     8    25    27    2
     9     6    11    1
    10     6    12    1
    11    29    36    1
    12    29    37    1
    13     7     9    1
    14     7    13    1
    15     8    10    1
    16     8    14    1
    17     4     5    1
    18    28    36    1
    19    30    33    1
    20    30    38    1
    21    31    34    1
    22    31    39    1
    23    32    35    1
    24    32    40    1
    25    41    43   ar
    26    15    19    2
    27    42    43   ar
    28    16    22    2
    29    17    12    1
    30    17    19   ar
    31    17    20   ar
    32    18    19   ar
    33    18    22   ar
    34    18    23    1
    35     9    10    1
    36     9    11    1
    37    10    12    1
    38    11     5    1
    39    33    34    1
    40    33    35    1
    41    34    36    1
    42    35    37    1
    43    37    43    1
    44    20    21   ar
    45    21    22   ar
@<TRIPOS>MOLECULE
UDP-glaA
 43 45 0 0 0
SMALL
GASTEIGER

@<TRIPOS>ATOM
      1 P          18.9329   70.8206   -3.7643 P.3     1  UNL1        0.2189
      2 O          18.1790   69.8015   -2.7592 O.3     1  UNL1       -0.4371
      3 O          18.6043   72.2705   -3.5597 O.2     1  UNL1       -0.5170
      4 O          18.6111   70.2276   -5.2342 O.3     1  UNL1       -0.3112
      5 C          19.1715   70.8753   -6.3636 C.3     1  UNL1        0.1811
      6 O          18.9177   73.2208   -6.8202 O.3     1  UNL1       -0.3308
      7 O          16.5113   72.4549   -8.4368 O.3     1  UNL1       -0.3794
      8 O          18.4151   72.8431  -10.3501 O.3     1  UNL1       -0.3779
      9 C          17.7493   71.7626   -8.2765 C.3     1  UNL1        0.1713
     10 C          18.8436   72.4548   -9.0612 C.3     1  UNL1        0.1895
     11 C          18.2145   71.9590   -6.8396 C.3     1  UNL1        0.1764
     12 C          19.1675   73.6426   -8.1711 C.3     1  UNL1        0.2383
     13 H          15.8512   71.9995   -7.8868 H       1  UNL1        0.2105
     14 H          18.1236   72.0404  -10.8158 H       1  UNL1        0.2106
     15 O          21.3708   71.8763   -8.1996 O.2     1  UNL1       -0.2464
     16 O          24.3784   75.3436   -8.6132 O.2     1  UNL1       -0.2670
     17 N          20.5368   74.0563   -8.2857 N.ar    1  UNL1       -0.2551
     18 N          22.8671   73.6041   -8.4050 N.ar    1  UNL1       -0.2743
     19 C          21.5691   73.0893   -8.2892 C.ar    1  UNL1        0.3323
     20 C          20.8460   75.4077   -8.3930 C.ar    1  UNL1        0.0869
     21 C          22.0886   75.8827   -8.5031 C.ar    1  UNL1        0.0795
     22 C          23.2241   74.9392   -8.5138 C.ar    1  UNL1        0.2626
     23 H          23.6252   72.9271   -8.4091 H       1  UNL1        0.1734
     24 O          20.4926   70.4476   -3.5558 O.3     1  UNL1       -0.2703
     25 P          21.8000   71.3893   -3.4279 P.3     1  UNL1        0.2208
     26 O          21.6856   72.3600   -4.7166 O.3     1  UNL1       -0.4371
     27 O          23.0954   70.6351   -3.3329 O.2     1  UNL1       -0.5170
     28 O          21.4922   72.3472   -2.1663 O.3     1  UNL1       -0.2858
     29 O          21.2664   70.8451   -0.3519 O.3     1  UNL1       -0.3226
     30 O          21.0246   74.5386    1.5399 O.3     1  UNL1       -0.3794
     31 O          19.6891   74.0918   -1.0141 O.3     1  UNL1       -0.3775
     32 O          21.2135   71.8952    2.3189 O.3     1  UNL1       -0.3792
     33 C          21.4396   73.5639    0.5870 C.3     1  UNL1        0.1718
     34 C          20.2365   73.0510   -0.2116 C.3     1  UNL1        0.1968
     35 C          22.1110   72.4032    1.3262 C.3     1  UNL1        0.1723
     36 C          20.6440   71.8823   -1.1173 C.3     1  UNL1        0.2706
     37 C          22.4351   71.2846    0.3383 C.3     1  UNL1        0.1830
     38 H          21.8159   74.8325    2.0225 H       1  UNL1        0.2105
     39 H          18.9387   73.7187   -1.5066 H       1  UNL1        0.2106
     40 H          20.5114   71.3925    1.8722 H       1  UNL1        0.2106
     41 O          22.8543   68.9779    0.2538 O.co2   1  UNL1       -0.5466
     42 O          23.4612   70.0741    2.1582 O.co2   1  UNL1       -0.5466
     43 C          22.9745   70.0770    1.0368 C.2     1  UNL1        0.0799
@<TRIPOS>UNITY_ATOM_ATTR
41 1
charge -1
@<TRIPOS>BOND
     1     1     4    1
     2     1    24    1
     3     1     2    1
     4     1     3    2
     5    25    28    1
     6    25    24    1
     7    25    26    1
     8    25    27    2
     9     6    11    1
    10     6    12    1
    11    29    36    1
    12    29    37    1
    13     7     9    1
    14     7    13    1
    15     8    10    1
    16     8    14    1
    17     4     5    1
    18    28    36    1
    19    30    33    1
    20    30    38    1
    21    31    34    1
    22    31    39    1
    23    32    35    1
    24    32    40    1
    25    41    43   ar
    26    15    19    2
    27    42    43   ar
    28    16    22    2
    29    17    12    1
    30    17    19   ar
    31    17    20   ar
    32    18    19   ar
    33    18    22   ar
    34    18    23    1
    35     9    10    1
    36     9    11    1
    37    10    12    1
    38    11     5    1
    39    33    34    1
    40    33    35    1
    41    34    36    1
    42    35    37    1
    43    37    43    1
    44    20    21   ar
    45    21    22   ar
