@<TRIPOS>MOLECULE
UD1
 46 48 0 0 0
SMALL
GASTEIGER

@<TRIPOS>ATOM
      1 P          21.7698   70.8825   -2.3954 P.3     1  UNL1        0.2189
      2 O          23.2316   71.0200   -2.5769 O.2     1  UNL1       -0.5170
      3 O          21.3451   69.3437   -2.6055 O.3     1  UNL1       -0.4371
      4 O          21.0067   71.8010   -3.4757 O.3     1  UNL1       -0.3112
      5 C          19.9938   72.5175   -2.7679 C.3     1  UNL1        0.1811
      6 C          17.8364   71.4037   -5.4198 C.3     1  UNL1        0.2383
      7 C          17.9752   70.1727   -4.4894 C.3     1  UNL1        0.1895
      8 O          16.7939   69.3710   -4.5227 O.3     1  UNL1       -0.3779
      9 C          18.1558   70.8345   -3.0985 C.3     1  UNL1        0.1713
     10 C          18.6353   72.2626   -3.4228 C.3     1  UNL1        0.1764
     11 O          18.7554   72.3612   -4.8521 O.3     1  UNL1       -0.3308
     12 O          16.9127   70.8651   -2.3938 O.3     1  UNL1       -0.3794
     13 H          16.9448   68.6249   -3.9260 H       1  UNL1        0.2106
     14 H          16.6368   69.9466   -2.2743 H       1  UNL1        0.2105
     15 N          18.2240   71.0657   -6.7898 N.ar    1  UNL1       -0.2551
     16 C          17.2830   70.7001   -7.6775 C.ar    1  UNL1        0.3323
     17 N          17.6102   70.3876   -8.9454 N.ar    1  UNL1       -0.2743
     18 C          18.8974   70.4279   -9.3445 C.ar    1  UNL1        0.2626
     19 C          19.8990   70.8053   -8.4186 C.ar    1  UNL1        0.0795
     20 C          19.5423   71.1189   -7.1546 C.ar    1  UNL1        0.0869
     21 O          16.1176   70.6590   -7.3326 O.2     1  UNL1       -0.2464
     22 O          19.1950   70.1409  -10.4893 O.2     1  UNL1       -0.2670
     23 H          16.9179   70.1306   -9.5737 H       1  UNL1        0.1734
     24 O          21.3667   71.3535   -0.9106 O.3     1  UNL1       -0.2703
     25 P          22.3536   70.5880    0.1039 P.3     1  UNL1        0.2208
     26 O          23.5960   70.2123   -0.6060 O.2     1  UNL1       -0.5170
     27 O          21.6305   69.2603    0.6578 O.3     1  UNL1       -0.4371
     28 O          22.7128   71.5563    1.3383 O.3     1  UNL1       -0.2865
     29 C          21.8659   72.7015    1.2269 C.3     1  UNL1        0.2611
     30 C          22.7000   73.9056    0.7861 C.3     1  UNL1        0.1582
     31 C          23.8091   74.1509    1.8153 C.3     1  UNL1        0.1625
     32 C          23.1714   74.2725    3.2034 C.3     1  UNL1        0.1686
     33 C          22.3040   73.0390    3.4631 C.3     1  UNL1        0.1760
     34 O          24.5009   75.3593    1.4950 O.3     1  UNL1       -0.3801
     35 O          24.1969   74.3547    4.1949 O.3     1  UNL1       -0.3794
     36 O          21.2619   72.9690    2.4907 O.3     1  UNL1       -0.3263
     37 H          25.1879   75.4741    2.1659 H       1  UNL1        0.2105
     38 H          23.7526   74.4291    5.0514 H       1  UNL1        0.2105
     39 C          23.3161   74.5954   -1.4676 C.2     1  UNL1        0.2231
     40 C          23.9304   74.3161   -2.8155 C.3     1  UNL1        0.0946
     41 N          23.2971   73.6349   -0.5234 N.am    1  UNL1       -0.2994
     42 O          22.8383   75.6848   -1.2330 O.2     1  UNL1       -0.2751
     43 H          23.6792   72.7630   -0.7109 H       1  UNL1        0.1496
     44 C          21.6882   73.1352    4.8605 C.3     1  UNL1        0.1693
     45 O          20.2682   73.2503    4.7488 O.3     1  UNL1       -0.3794
     46 H          19.9205   73.3085    5.6490 H       1  UNL1        0.2105
@<TRIPOS>BOND
     1    29    30    1
     2    29    28    1
     3    29    36    1
     4    30    31    1
     5    30    41    1
     6    31    32    1
     7    31    34    1
     8    32    33    1
     9    32    35    1
    10    33    44    1
    11    33    36    1
    12    44    45    1
    13    39    40    1
    14    39    41   am
    15    39    42    2
    16    41    43    1
    17    28    25    1
    18    34    37    1
    19    35    38    1
    20    45    46    1
    21    15    16   ar
    22    15    20   ar
    23    15     6    1
    24    16    17   ar
    25    16    21    2
    26    17    18   ar
    27    17    23    1
    28    18    19   ar
    29    18    22    2
    30    19    20   ar
    31     6     7    1
    32     6    11    1
    33     7     8    1
    34     7     9    1
    35     8    13    1
    36     9    10    1
    37     9    12    1
    38    10    11    1
    39    10     5    1
    40    12    14    1
    41     5     4    1
    42     4     1    1
    43     1     2    2
    44     1     3    1
    45     1    24    1
    46    24    25    1
    47    25    26    2
    48    25    27    1
@<TRIPOS>MOLECULE
UD1
 46 48 0 0 0
SMALL
GASTEIGER

@<TRIPOS>ATOM
      1 P          21.7737   70.4948   -0.4435 P.3     1  UNL1        0.2189
      2 O          23.0818   70.9827   -0.9330 O.2     1  UNL1       -0.5170
      3 O          21.9989   69.2078    0.4976 O.3     1  UNL1       -0.4371
      4 O          20.8504   70.0861   -1.6979 O.3     1  UNL1       -0.3112
      5 C          20.8484   71.2010   -2.5908 C.3     1  UNL1        0.1811
      6 C          18.3240   71.1090   -5.1495 C.3     1  UNL1        0.2383
      7 C          18.1759   69.7562   -4.4092 C.3     1  UNL1        0.1895
      8 O          16.8215   69.3044   -4.4363 O.3     1  UNL1       -0.3779
      9 C          18.6072   70.1257   -2.9661 C.3     1  UNL1        0.1713
     10 C          19.4371   71.4122   -3.1412 C.3     1  UNL1        0.1764
     11 O          19.4988   71.6953   -4.5495 O.3     1  UNL1       -0.3308
     12 O          17.4607   70.3697   -2.1482 O.3     1  UNL1       -0.3794
     13 H          16.7976   68.4620   -3.9615 H       1  UNL1        0.2106
     14 H          16.9531   69.5475   -2.1265 H       1  UNL1        0.2105
     15 N          18.5277   70.8971   -6.5830 N.ar    1  UNL1       -0.2551
     16 C          17.4642   70.7850   -7.3977 C.ar    1  UNL1        0.3323
     17 N          17.6218   70.5936   -8.7209 N.ar    1  UNL1       -0.2743
     18 C          18.8578   70.5015   -9.2517 C.ar    1  UNL1        0.2626
     19 C          19.9861   70.6118   -8.4046 C.ar    1  UNL1        0.0795
     20 C          19.7994   70.8089   -7.0818 C.ar    1  UNL1        0.0869
     21 O          16.3430   70.8660   -6.9339 O.2     1  UNL1       -0.2464
     22 O          19.0013   70.3237  -10.4471 O.2     1  UNL1       -0.2670
     23 H          16.8434   70.5197   -9.2944 H       1  UNL1        0.1734
     24 O          21.0487   71.6573    0.4000 O.3     1  UNL1       -0.2703
     25 P          21.9184   71.8734    1.7365 P.3     1  UNL1        0.2208
     26 O          22.7613   70.6810    1.9745 O.2     1  UNL1       -0.5170
     27 O          20.9321   72.0914    2.9902 O.3     1  UNL1       -0.4371
     28 O          22.8580   73.1687    1.5633 O.3     1  UNL1       -0.2865
     29 C          22.2687   74.2147    2.3377 C.3     1  UNL1        0.2611
     30 C          22.3710   75.5324    1.5674 C.3     1  UNL1        0.1582
     31 C          23.8469   75.8343    1.2845 C.3     1  UNL1        0.1625
     32 C          24.6185   75.7910    2.6077 C.3     1  UNL1        0.1686
     33 C          24.3490   74.4523    3.2981 C.3     1  UNL1        0.1760
     34 O          23.9665   77.1321    0.6989 O.3     1  UNL1       -0.3801
     35 O          26.0176   75.9241    2.3497 O.3     1  UNL1       -0.3794
     36 O          22.9560   74.3280    3.5820 O.3     1  UNL1       -0.3263
     37 H          24.9085   77.2801    0.5376 H       1  UNL1        0.2105
     38 H          26.4646   75.8910    3.2073 H       1  UNL1        0.2105
     39 C          22.2809   75.0041   -0.8089 C.2     1  UNL1        0.2231
     40 C          21.5304   74.8872   -2.1110 C.3     1  UNL1        0.0946
     41 N          21.6423   75.4182    0.3024 N.am    1  UNL1       -0.2994
     42 O          23.4601   74.7260   -0.7617 O.2     1  UNL1       -0.2751
     43 H          20.6987   75.6411    0.2648 H       1  UNL1        0.1496
     44 C          25.1411   74.3857    4.6055 C.3     1  UNL1        0.1693
     45 O          24.4548   75.1261    5.6169 O.3     1  UNL1       -0.3794
     46 H          24.9860   75.0589    6.4219 H       1  UNL1        0.2105
@<TRIPOS>BOND
     1    29    30    1
     2    29    28    1
     3    29    36    1
     4    30    31    1
     5    30    41    1
     6    31    32    1
     7    31    34    1
     8    32    33    1
     9    32    35    1
    10    33    44    1
    11    33    36    1
    12    44    45    1
    13    39    40    1
    14    39    41   am
    15    39    42    2
    16    41    43    1
    17    28    25    1
    18    34    37    1
    19    35    38    1
    20    45    46    1
    21    15    16   ar
    22    15    20   ar
    23    15     6    1
    24    16    17   ar
    25    16    21    2
    26    17    18   ar
    27    17    23    1
    28    18    19   ar
    29    18    22    2
    30    19    20   ar
    31     6     7    1
    32     6    11    1
    33     7     8    1
    34     7     9    1
    35     8    13    1
    36     9    10    1
    37     9    12    1
    38    10    11    1
    39    10     5    1
    40    12    14    1
    41     5     4    1
    42     4     1    1
    43     1     2    2
    44     1     3    1
    45     1    24    1
    46    24    25    1
    47    25    26    2
    48    25    27    1
@<TRIPOS>MOLECULE
UD1
 46 48 0 0 0
SMALL
GASTEIGER

@<TRIPOS>ATOM
      1 P          21.7096   70.5317   -0.4489 P.3     1  UNL1        0.2189
      2 O          23.0317   71.0579   -0.8540 O.2     1  UNL1       -0.5170
      3 O          21.8588   69.7058    0.9252 O.3     1  UNL1       -0.4371
      4 O          21.1444   69.5582   -1.6003 O.3     1  UNL1       -0.3112
      5 C          21.2467   70.2723   -2.8332 C.3     1  UNL1        0.1811
      6 C          18.5942   70.8171   -5.1984 C.3     1  UNL1        0.2383
      7 C          18.2671   69.4451   -4.5576 C.3     1  UNL1        0.1895
      8 O          16.8572   69.2214   -4.5203 O.3     1  UNL1       -0.3779
      9 C          18.8393   69.6097   -3.1256 C.3     1  UNL1        0.1713
     10 C          19.8601   70.7563   -3.2599 C.3     1  UNL1        0.1764
     11 O          19.8839   71.1506   -4.6424 O.3     1  UNL1       -0.3308
     12 O          17.8005   69.9609   -2.2090 O.3     1  UNL1       -0.3794
     13 H          16.7217   68.3549   -4.1127 H       1  UNL1        0.2106
     14 H          17.1652   69.2326   -2.2146 H       1  UNL1        0.2105
     15 N          18.6737   70.7043   -6.6552 N.ar    1  UNL1       -0.2551
     16 C          17.5440   70.6439   -7.3815 C.ar    1  UNL1        0.3323
     17 N          17.5871   70.5438   -8.7233 N.ar    1  UNL1       -0.2743
     18 C          18.7729   70.4930   -9.3631 C.ar    1  UNL1        0.2626
     19 C          19.9699   70.5496   -8.6103 C.ar    1  UNL1        0.0795
     20 C          19.8978   70.6553   -7.2661 C.ar    1  UNL1        0.0869
     21 O          16.4669   70.6886   -6.8189 O.2     1  UNL1       -0.2464
     22 O          18.8130   70.3977  -10.5758 O.2     1  UNL1       -0.2670
     23 H          16.7624   70.5062   -9.2317 H       1  UNL1        0.1734
     24 O          20.6882   71.7558   -0.2323 O.3     1  UNL1       -0.2703
     25 P          21.5822   73.0832   -0.0645 P.3     1  UNL1        0.2208
     26 O          20.7711   74.2711   -0.4105 O.2     1  UNL1       -0.5170
     27 O          22.8565   73.0003   -1.0450 O.3     1  UNL1       -0.4371
     28 O          22.0863   73.2030    1.4593 O.3     1  UNL1       -0.2865
     29 C          22.0132   74.5854    1.8126 C.3     1  UNL1        0.2611
     30 C          23.3984   75.0703    2.2442 C.3     1  UNL1        0.1582
     31 C          23.8742   74.2317    3.4358 C.3     1  UNL1        0.1625
     32 C          22.7988   74.2757    4.5266 C.3     1  UNL1        0.1686
     33 C          21.4593   73.8477    3.9234 C.3     1  UNL1        0.1760
     34 O          25.0969   74.7700    3.9423 O.3     1  UNL1       -0.3801
     35 O          23.1547   73.3840    5.5848 O.3     1  UNL1       -0.3794
     36 O          21.0875   74.7524    2.8842 O.3     1  UNL1       -0.3263
     37 H          25.3594   74.2134    4.6884 H       1  UNL1        0.2105
     38 H          22.4522   73.4422    6.2478 H       1  UNL1        0.2105
     39 C          25.2572   75.8751    0.8910 C.2     1  UNL1        0.2231
     40 C          26.2247   75.7200   -0.2545 C.3     1  UNL1        0.0946
     41 N          24.3387   74.9198    1.1318 N.am    1  UNL1       -0.2994
     42 O          25.3052   76.8606    1.5959 O.2     1  UNL1       -0.2751
     43 H          24.3000   74.1312    0.5677 H       1  UNL1        0.1496
     44 C          20.3847   73.8570    5.0125 C.3     1  UNL1        0.1693
     45 O          19.3438   74.7655    4.6475 O.3     1  UNL1       -0.3794
     46 H          18.6892   74.7413    5.3586 H       1  UNL1        0.2105
@<TRIPOS>BOND
     1    29    30    1
     2    29    28    1
     3    29    36    1
     4    30    31    1
     5    30    41    1
     6    31    32    1
     7    31    34    1
     8    32    33    1
     9    32    35    1
    10    33    44    1
    11    33    36    1
    12    44    45    1
    13    39    40    1
    14    39    41   am
    15    39    42    2
    16    41    43    1
    17    28    25    1
    18    34    37    1
    19    35    38    1
    20    45    46    1
    21    15    16   ar
    22    15    20   ar
    23    15     6    1
    24    16    17   ar
    25    16    21    2
    26    17    18   ar
    27    17    23    1
    28    18    19   ar
    29    18    22    2
    30    19    20   ar
    31     6     7    1
    32     6    11    1
    33     7     8    1
    34     7     9    1
    35     8    13    1
    36     9    10    1
    37     9    12    1
    38    10    11    1
    39    10     5    1
    40    12    14    1
    41     5     4    1
    42     4     1    1
    43     1     2    2
    44     1     3    1
    45     1    24    1
    46    24    25    1
    47    25    26    2
    48    25    27    1
@<TRIPOS>MOLECULE
UD1
 46 48 0 0 0
SMALL
GASTEIGER

@<TRIPOS>ATOM
      1 P          21.7071   70.3834   -0.3895 P.3     1  UNL1        0.2189
      2 O          22.9092   71.0876   -0.8872 O.2     1  UNL1       -0.5170
      3 O          22.1557   69.1421    0.5328 O.3     1  UNL1       -0.4371
      4 O          20.8485   69.8399   -1.6386 O.3     1  UNL1       -0.3112
      5 C          20.9585   70.8183   -2.6734 C.3     1  UNL1        0.1811
      6 C          18.3978   71.0285   -5.1886 C.3     1  UNL1        0.2383
      7 C          18.1387   69.6737   -4.4832 C.3     1  UNL1        0.1895
      8 O          16.7487   69.3470   -4.4987 O.3     1  UNL1       -0.3779
      9 C          18.6236   69.9609   -3.0383 C.3     1  UNL1        0.1713
     10 C          19.5640   71.1718   -3.1928 C.3     1  UNL1        0.1764
     11 O          19.6298   71.4888   -4.5936 O.3     1  UNL1       -0.3308
     12 O          17.5165   70.2836   -2.1939 O.3     1  UNL1       -0.3794
     13 H          16.6557   68.4968   -4.0469 H       1  UNL1        0.2106
     14 H          16.9368   69.5103   -2.1858 H       1  UNL1        0.2105
     15 N          18.5597   70.8406   -6.6308 N.ar    1  UNL1       -0.2551
     16 C          17.4738   70.7832   -7.4212 C.ar    1  UNL1        0.3323
     17 N          17.5929   70.6150   -8.7516 N.ar    1  UNL1       -0.2743
     18 C          18.8119   70.4915   -9.3143 C.ar    1  UNL1        0.2626
     19 C          19.9633   70.5442   -8.4931 C.ar    1  UNL1        0.0795
     20 C          19.8152   70.7191   -7.1624 C.ar    1  UNL1        0.0869
     21 O          16.3675   70.8930   -6.9285 O.2     1  UNL1       -0.2464
     22 O          18.9207   70.3347  -10.5164 O.2     1  UNL1       -0.2670
     23 H          16.7991   70.5806   -9.3072 H       1  UNL1        0.1734
     24 O          20.8097   71.3999    0.4767 O.3     1  UNL1       -0.2703
     25 P          21.8240   72.4333    1.1784 P.3     1  UNL1        0.2208
     26 O          22.7645   72.9646    0.1674 O.2     1  UNL1       -0.5170
     27 O          22.6507   71.6746    2.3330 O.3     1  UNL1       -0.4371
     28 O          20.9909   73.6482    1.8270 O.3     1  UNL1       -0.2865
     29 C          21.6297   74.8569    1.4119 C.3     1  UNL1        0.2611
     30 C          21.7867   75.7849    2.6178 C.3     1  UNL1        0.1582
     31 C          20.4028   76.0791    3.2075 C.3     1  UNL1        0.1625
     32 C          19.4967   76.6086    2.0909 C.3     1  UNL1        0.1686
     33 C          19.5100   75.6167    0.9258 C.3     1  UNL1        0.1760
     34 O          20.5206   77.0607    4.2390 O.3     1  UNL1       -0.3801
     35 O          18.1633   76.7505    2.5843 O.3     1  UNL1       -0.3794
     36 O          20.8360   75.4934    0.4128 O.3     1  UNL1       -0.3263
     37 H          19.6293   77.2147    4.5812 H       1  UNL1        0.2105
     38 H          17.6277   77.0845    1.8508 H       1  UNL1        0.2105
     39 C          22.0549   74.4000    4.6039 C.2     1  UNL1        0.2231
     40 C          22.9164   73.7328    5.6455 C.3     1  UNL1        0.0946
     41 N          22.6233   75.1361    3.6296 N.am    1  UNL1       -0.2994
     42 O          20.8495   74.2747    4.6432 O.2     1  UNL1       -0.2751
     43 H          23.5879   75.2368    3.5980 H       1  UNL1        0.1496
     44 C          18.5824   76.1204   -0.1818 C.3     1  UNL1        0.1693
     45 O          18.6078   77.5489   -0.2120 O.3     1  UNL1       -0.3794
     46 H          18.0116   77.8244   -0.9214 H       1  UNL1        0.2105
@<TRIPOS>BOND
     1    29    30    1
     2    29    28    1
     3    29    36    1
     4    30    31    1
     5    30    41    1
     6    31    32    1
     7    31    34    1
     8    32    33    1
     9    32    35    1
    10    33    44    1
    11    33    36    1
    12    44    45    1
    13    39    40    1
    14    39    41   am
    15    39    42    2
    16    41    43    1
    17    28    25    1
    18    34    37    1
    19    35    38    1
    20    45    46    1
    21    15    16   ar
    22    15    20   ar
    23    15     6    1
    24    16    17   ar
    25    16    21    2
    26    17    18   ar
    27    17    23    1
    28    18    19   ar
    29    18    22    2
    30    19    20   ar
    31     6     7    1
    32     6    11    1
    33     7     8    1
    34     7     9    1
    35     8    13    1
    36     9    10    1
    37     9    12    1
    38    10    11    1
    39    10     5    1
    40    12    14    1
    41     5     4    1
    42     4     1    1
    43     1     2    2
    44     1     3    1
    45     1    24    1
    46    24    25    1
    47    25    26    2
    48    25    27    1
@<TRIPOS>MOLECULE
UD1
 46 48 0 0 0
SMALL
GASTEIGER

@<TRIPOS>ATOM
      1 P          21.8867   70.8070   -0.6961 P.3     1  UNL1        0.2189
      2 O          22.5762   70.2428   -1.8772 O.2     1  UNL1       -0.5170
      3 O          21.5800   69.6303    0.3592 O.3     1  UNL1       -0.4371
      4 O          20.5019   71.4868   -1.1578 O.3     1  UNL1       -0.3112
      5 C          20.5880   71.6836   -2.5699 C.3     1  UNL1        0.1811
      6 C          18.1567   71.2495   -5.1828 C.3     1  UNL1        0.2383
      7 C          18.1074   69.9238   -4.3826 C.3     1  UNL1        0.1895
      8 O          16.7997   69.3515   -4.4215 O.3     1  UNL1       -0.3779
      9 C          18.4625   70.3957   -2.9486 C.3     1  UNL1        0.1713
     10 C          19.1801   71.7422   -3.1645 C.3     1  UNL1        0.1764
     11 O          19.2571   71.9654   -4.5827 O.3     1  UNL1       -0.3308
     12 O          17.2759   70.5727   -2.1719 O.3     1  UNL1       -0.3794
     13 H          16.8367   68.5329   -3.9078 H       1  UNL1        0.2106
     14 H          16.8426   69.7101   -2.1234 H       1  UNL1        0.2105
     15 N          18.4196   70.9918   -6.5991 N.ar    1  UNL1       -0.2551
     16 C          17.3908   70.8196   -7.4472 C.ar    1  UNL1        0.3323
     17 N          17.6029   70.5850   -8.7557 N.ar    1  UNL1       -0.2743
     18 C          18.8600   70.5096   -9.2374 C.ar    1  UNL1        0.2626
     19 C          19.9524   70.6830   -8.3546 C.ar    1  UNL1        0.0795
     20 C          19.7110   70.9224   -7.0477 C.ar    1  UNL1        0.0869
     21 O          16.2513   70.8848   -7.0279 O.2     1  UNL1       -0.2464
     22 O          19.0530   70.2929  -10.4194 O.2     1  UNL1       -0.2670
     23 H          16.8490   70.4680   -9.3540 H       1  UNL1        0.1734
     24 O          22.8253   71.9169   -0.0061 O.3     1  UNL1       -0.2703
     25 P          21.9190   72.6805    1.0824 P.3     1  UNL1        0.2208
     26 O          20.8748   71.7616    1.5866 O.2     1  UNL1       -0.5170
     27 O          21.2217   73.9604    0.3984 O.3     1  UNL1       -0.4371
     28 O          22.8437   73.1656    2.3072 O.3     1  UNL1       -0.2865
     29 C          22.5553   74.5483    2.5219 C.3     1  UNL1        0.2611
     30 C          23.7286   75.2010    3.2550 C.3     1  UNL1        0.1582
     31 C          23.9488   74.4805    4.5899 C.3     1  UNL1        0.1625
     32 C          22.6254   74.4640    5.3622 C.3     1  UNL1        0.1686
     33 C          21.5358   73.8639    4.4710 C.3     1  UNL1        0.1760
     34 O          24.9416   75.1725    5.3495 O.3     1  UNL1       -0.3801
     35 O          22.7703   73.6710    6.5419 O.3     1  UNL1       -0.3794
     36 O          21.3694   74.6691    3.3046 O.3     1  UNL1       -0.3263
     37 H          25.0483   74.6862    6.1786 H       1  UNL1        0.2105
     38 H          21.9160   73.6870    6.9964 H       1  UNL1        0.2105
     39 C          25.7896   76.1362    2.3540 C.2     1  UNL1        0.2231
     40 C          27.0338   76.0279    1.5099 C.3     1  UNL1        0.0946
     41 N          24.9377   75.0961    2.4356 N.am    1  UNL1       -0.2994
     42 O          25.5549   77.1602    2.9594 O.2     1  UNL1       -0.2751
     43 H          25.1252   74.2766    1.9511 H       1  UNL1        0.1496
     44 C          20.2167   73.8130    5.2446 C.3     1  UNL1        0.1693
     45 O          19.2088   73.2119    4.4291 O.3     1  UNL1       -0.3794
     46 H          18.3960   73.1995    4.9525 H       1  UNL1        0.2105
@<TRIPOS>BOND
     1    29    30    1
     2    29    28    1
     3    29    36    1
     4    30    31    1
     5    30    41    1
     6    31    32    1
     7    31    34    1
     8    32    33    1
     9    32    35    1
    10    33    44    1
    11    33    36    1
    12    44    45    1
    13    39    40    1
    14    39    41   am
    15    39    42    2
    16    41    43    1
    17    28    25    1
    18    34    37    1
    19    35    38    1
    20    45    46    1
    21    15    16   ar
    22    15    20   ar
    23    15     6    1
    24    16    17   ar
    25    16    21    2
    26    17    18   ar
    27    17    23    1
    28    18    19   ar
    29    18    22    2
    30    19    20   ar
    31     6     7    1
    32     6    11    1
    33     7     8    1
    34     7     9    1
    35     8    13    1
    36     9    10    1
    37     9    12    1
    38    10    11    1
    39    10     5    1
    40    12    14    1
    41     5     4    1
    42     4     1    1
    43     1     2    2
    44     1     3    1
    45     1    24    1
    46    24    25    1
    47    25    26    2
    48    25    27    1
@<TRIPOS>MOLECULE
UD1
 46 48 0 0 0
SMALL
GASTEIGER

@<TRIPOS>ATOM
      1 P          21.5645   71.0843   -0.4084 P.3     1  UNL1        0.2189
      2 O          22.9748   71.2326   -0.8304 O.2     1  UNL1       -0.5170
      3 O          21.5114   70.6128    1.1302 O.3     1  UNL1       -0.4371
      4 O          20.8418   69.9810   -1.3321 O.3     1  UNL1       -0.3112
      5 C          20.9655   70.4271   -2.6834 C.3     1  UNL1        0.1811
      6 C          18.4394   70.9074   -5.1964 C.3     1  UNL1        0.2383
      7 C          18.0821   69.5496   -4.5414 C.3     1  UNL1        0.1895
      8 O          16.6727   69.3222   -4.5726 O.3     1  UNL1       -0.3779
      9 C          18.5782   69.7498   -3.0857 C.3     1  UNL1        0.1713
     10 C          19.6021   70.8963   -3.1934 C.3     1  UNL1        0.1764
     11 O          19.6975   71.2581   -4.5817 O.3     1  UNL1       -0.3308
     12 O          17.4920   70.1189   -2.2332 O.3     1  UNL1       -0.3794
     13 H          16.5178   68.4650   -4.1523 H       1  UNL1        0.2106
     14 H          16.8594   69.3885   -2.2548 H       1  UNL1        0.2105
     15 N          18.5954   70.7607   -6.6440 N.ar    1  UNL1       -0.2551
     16 C          17.5058   70.7101   -7.4298 C.ar    1  UNL1        0.3323
     17 N          17.6195   70.5795   -8.7648 N.ar    1  UNL1       -0.2743
     18 C          18.8368   70.4875   -9.3374 C.ar    1  UNL1        0.2626
     19 C          19.9921   70.5333   -8.5213 C.ar    1  UNL1        0.0795
     20 C          19.8494   70.6702   -7.1855 C.ar    1  UNL1        0.0869
     21 O          16.4011   70.7918   -6.9283 O.2     1  UNL1       -0.2464
     22 O          18.9406   70.3646  -10.5438 O.2     1  UNL1       -0.2670
     23 H          16.8230   70.5495   -9.3169 H       1  UNL1        0.1734
     24 O          20.8064   72.4948   -0.5649 O.3     1  UNL1       -0.2703
     25 P          21.9451   73.6168   -0.7489 P.3     1  UNL1        0.2208
     26 O          21.3231   74.8817   -1.1984 O.2     1  UNL1       -0.5170
     27 O          23.0123   73.1239   -1.8491 O.3     1  UNL1       -0.4371
     28 O          22.6954   73.8569    0.6546 O.3     1  UNL1       -0.2865
     29 C          21.7909   74.5824    1.4893 C.3     1  UNL1        0.2611
     30 C          22.4893   75.8347    2.0222 C.3     1  UNL1        0.1582
     31 C          23.7359   75.4165    2.8101 C.3     1  UNL1        0.1625
     32 C          23.3223   74.3969    3.8766 C.3     1  UNL1        0.1686
     33 C          22.5636   73.2513    3.2033 C.3     1  UNL1        0.1760
     34 O          24.3128   76.5633    3.4374 O.3     1  UNL1       -0.3801
     35 O          24.4878   73.8842    4.5250 O.3     1  UNL1       -0.3794
     36 O          21.3843   73.7560    2.5780 O.3     1  UNL1       -0.3263
     37 H          25.0920   76.2551    3.9204 H       1  UNL1        0.2105
     38 H          24.1825   73.2471    5.1864 H       1  UNL1        0.2105
     39 C          22.3447   77.9192    0.7700 C.2     1  UNL1        0.2231
     40 C          22.7488   78.8002   -0.3845 C.3     1  UNL1        0.0946
     41 N          22.8820   76.6911    0.9011 N.am    1  UNL1       -0.2994
     42 O          21.5350   78.3158    1.5808 O.2     1  UNL1       -0.2751
     43 H          23.5298   76.3734    0.2523 H       1  UNL1        0.1496
     44 C          22.1743   72.2111    4.2557 C.3     1  UNL1        0.1693
     45 O          21.8448   72.8713    5.4795 O.3     1  UNL1       -0.3794
     46 H          21.6063   72.1819    6.1139 H       1  UNL1        0.2105
@<TRIPOS>BOND
     1    29    30    1
     2    29    28    1
     3    29    36    1
     4    30    31    1
     5    30    41    1
     6    31    32    1
     7    31    34    1
     8    32    33    1
     9    32    35    1
    10    33    44    1
    11    33    36    1
    12    44    45    1
    13    39    40    1
    14    39    41   am
    15    39    42    2
    16    41    43    1
    17    28    25    1
    18    34    37    1
    19    35    38    1
    20    45    46    1
    21    15    16   ar
    22    15    20   ar
    23    15     6    1
    24    16    17   ar
    25    16    21    2
    26    17    18   ar
    27    17    23    1
    28    18    19   ar
    29    18    22    2
    30    19    20   ar
    31     6     7    1
    32     6    11    1
    33     7     8    1
    34     7     9    1
    35     8    13    1
    36     9    10    1
    37     9    12    1
    38    10    11    1
    39    10     5    1
    40    12    14    1
    41     5     4    1
    42     4     1    1
    43     1     2    2
    44     1     3    1
    45     1    24    1
    46    24    25    1
    47    25    26    2
    48    25    27    1
@<TRIPOS>MOLECULE
UD1
 46 48 0 0 0
SMALL
GASTEIGER

@<TRIPOS>ATOM
      1 P          21.5527   73.0421   -5.5721 P.3     1  UNL1        0.2189
      2 O          21.7763   74.3680   -4.9550 O.2     1  UNL1       -0.5170
      3 O          22.7718   72.7007   -6.5669 O.3     1  UNL1       -0.4371
      4 O          20.1734   73.0630   -6.4026 O.3     1  UNL1       -0.3112
      5 C          20.0643   71.7973   -7.0557 C.3     1  UNL1        0.1811
      6 C          16.8642   73.0391   -8.1256 C.3     1  UNL1        0.2383
      7 C          17.8723   73.6440   -9.1345 C.3     1  UNL1        0.1895
      8 O          17.2676   73.8244  -10.4155 O.3     1  UNL1       -0.3779
      9 C          18.9720   72.5518   -9.1906 C.3     1  UNL1        0.1713
     10 C          18.7789   71.7587   -7.8836 C.3     1  UNL1        0.1764
     11 O          17.7091   72.3850   -7.1551 O.3     1  UNL1       -0.3308
     12 O          18.7815   71.7079  -10.3282 O.3     1  UNL1       -0.3794
     13 H          17.9443   74.2025  -10.9940 H       1  UNL1        0.2106
     14 H          18.8549   72.2719  -11.1097 H       1  UNL1        0.2105
     15 N          16.0690   74.0913   -7.4917 N.ar    1  UNL1       -0.2551
     16 C          14.8880   74.4475   -8.0264 C.ar    1  UNL1        0.3323
     17 N          14.1338   75.4094   -7.4624 N.ar    1  UNL1       -0.2743
     18 C          14.5587   76.0412   -6.3497 C.ar    1  UNL1        0.2626
     19 C          15.8028   75.6803   -5.7798 C.ar    1  UNL1        0.0795
     20 C          16.5368   74.7084   -6.3629 C.ar    1  UNL1        0.0869
     21 O          14.4911   73.8869   -9.0298 O.2     1  UNL1       -0.2464
     22 O          13.8798   76.9144   -5.8417 O.2     1  UNL1       -0.2670
     23 H          13.2823   75.6503   -7.8589 H       1  UNL1        0.1734
     24 O          21.4686   71.9215   -4.4205 O.3     1  UNL1       -0.2703
     25 P          22.7680   72.1120   -3.4907 P.3     1  UNL1        0.2208
     26 O          23.7508   72.9714   -4.1867 O.2     1  UNL1       -0.5170
     27 O          23.4298   70.6751   -3.1912 O.3     1  UNL1       -0.4371
     28 O          22.3391   72.8034   -2.1020 O.3     1  UNL1       -0.2865
     29 C          21.1004   72.2100   -1.7087 C.3     1  UNL1        0.2611
     30 C          20.2410   73.2580   -0.9995 C.3     1  UNL1        0.1582
     31 C          21.0007   73.7852    0.2230 C.3     1  UNL1        0.1625
     32 C          21.4229   72.5936    1.0891 C.3     1  UNL1        0.1686
     33 C          22.1959   71.5970    0.2227 C.3     1  UNL1        0.1760
     34 O          20.1516   74.6524    0.9771 O.3     1  UNL1       -0.3801
     35 O          22.2573   73.0498    2.1555 O.3     1  UNL1       -0.3794
     36 O          21.3565   71.1186   -0.8275 O.3     1  UNL1       -0.3263
     37 H          20.6684   74.9603    1.7343 H       1  UNL1        0.2105
     38 H          22.5002   72.2696    2.6739 H       1  UNL1        0.2105
     39 C          20.7173   75.4777   -1.8829 C.2     1  UNL1        0.2231
     40 C          20.4277   76.6162   -2.8274 C.3     1  UNL1        0.0946
     41 N          19.9604   74.3641   -1.9172 N.am    1  UNL1       -0.2994
     42 O          21.6316   75.5643   -1.0912 O.2     1  UNL1       -0.2751
     43 H          19.2285   74.2946   -2.5505 H       1  UNL1        0.1496
     44 C          22.6504   70.4182    1.0858 C.3     1  UNL1        0.1693
     45 O          22.0451   69.2155    0.6069 O.3     1  UNL1       -0.3794
     46 H          22.3566   68.4993    1.1768 H       1  UNL1        0.2105
@<TRIPOS>BOND
     1    29    30    1
     2    29    28    1
     3    29    36    1
     4    30    31    1
     5    30    41    1
     6    31    32    1
     7    31    34    1
     8    32    33    1
     9    32    35    1
    10    33    44    1
    11    33    36    1
    12    44    45    1
    13    39    40    1
    14    39    41   am
    15    39    42    2
    16    41    43    1
    17    28    25    1
    18    34    37    1
    19    35    38    1
    20    45    46    1
    21    15    16   ar
    22    15    20   ar
    23    15     6    1
    24    16    17   ar
    25    16    21    2
    26    17    18   ar
    27    17    23    1
    28    18    19   ar
    29    18    22    2
    30    19    20   ar
    31     6     7    1
    32     6    11    1
    33     7     8    1
    34     7     9    1
    35     8    13    1
    36     9    10    1
    37     9    12    1
    38    10    11    1
    39    10     5    1
    40    12    14    1
    41     5     4    1
    42     4     1    1
    43     1     2    2
    44     1     3    1
    45     1    24    1
    46    24    25    1
    47    25    26    2
    48    25    27    1
@<TRIPOS>MOLECULE
UD1
 46 48 0 0 0
SMALL
GASTEIGER

@<TRIPOS>ATOM
      1 P          22.8717   72.1983   -3.2384 P.3     1  UNL1        0.2189
      2 O          23.3190   70.7881   -3.2441 O.2     1  UNL1       -0.5170
      3 O          23.9136   73.0953   -4.0764 O.3     1  UNL1       -0.4371
      4 O          22.8039   72.7331   -1.7211 O.3     1  UNL1       -0.3112
      5 C          22.4645   71.6130   -0.9022 C.3     1  UNL1        0.1811
      6 C          20.5638   72.7701    1.9219 C.3     1  UNL1        0.2383
      7 C          20.6777   74.0079    0.9972 C.3     1  UNL1        0.1895
      8 O          19.5346   74.8532    1.1314 O.3     1  UNL1       -0.3779
      9 C          20.7243   73.3594   -0.4108 C.3     1  UNL1        0.1713
     10 C          21.1717   71.9098   -0.1407 C.3     1  UNL1        0.1764
     11 O          21.3982   71.7866    1.2738 O.3     1  UNL1       -0.3308
     12 O          19.4301   73.3857   -1.0167 O.3     1  UNL1       -0.3794
     13 H          19.6676   75.6013    0.5330 H       1  UNL1        0.2106
     14 H          19.1815   74.3156   -1.1042 H       1  UNL1        0.2105
     15 N          21.0691   73.0739    3.2612 N.ar    1  UNL1       -0.2551
     16 C          20.2167   73.4768    4.2195 C.ar    1  UNL1        0.3323
     17 N          20.6530   73.7593    5.4613 N.ar    1  UNL1       -0.2743
     18 C          21.9628   73.6505    5.7624 C.ar    1  UNL1        0.2626
     19 C          22.8720   73.2331    4.7614 C.ar    1  UNL1        0.0795
     20 C          22.4066   72.9510    3.5257 C.ar    1  UNL1        0.0869
     21 O          19.0325   73.5798    3.9633 O.2     1  UNL1       -0.2464
     22 O          22.3591   73.9102    6.8835 O.2     1  UNL1       -0.2670
     23 H          20.0234   74.0440    6.1415 H       1  UNL1        0.1734
     24 O          21.4128   72.3013   -3.9091 O.3     1  UNL1       -0.2703
     25 P          21.5885   73.1249   -5.2802 P.3     1  UNL1        0.2208
     26 O          22.7931   72.6450   -5.9928 O.2     1  UNL1       -0.5170
     27 O          21.7507   74.6920   -4.9488 O.3     1  UNL1       -0.4371
     28 O          20.2927   72.9057   -6.2093 O.3     1  UNL1       -0.2865
     29 C          20.3634   71.5698   -6.7109 C.3     1  UNL1        0.2611
     30 C          20.3326   71.6021   -8.2399 C.3     1  UNL1        0.1582
     31 C          19.0403   72.2855   -8.7009 C.3     1  UNL1        0.1625
     32 C          17.8507   71.5814   -8.0395 C.3     1  UNL1        0.1686
     33 C          18.0674   71.5534   -6.5251 C.3     1  UNL1        0.1760
     34 O          18.9283   72.1891  -10.1220 O.3     1  UNL1       -0.3801
     35 O          16.6480   72.2924   -8.3386 O.3     1  UNL1       -0.3794
     36 O          19.2535   70.8204   -6.2212 O.3     1  UNL1       -0.3263
     37 H          18.1039   72.6308  -10.3679 H       1  UNL1        0.2105
     38 H          15.9263   71.8168   -7.9034 H       1  UNL1        0.2105
     39 C          21.3792   73.6699   -8.9903 C.2     1  UNL1        0.2231
     40 C          22.5689   74.4407   -9.5029 C.3     1  UNL1        0.0946
     41 N          21.4882   72.3514   -8.7374 N.am    1  UNL1       -0.2994
     42 O          20.3232   74.2367   -8.8060 O.2     1  UNL1       -0.2751
     43 H          22.3331   71.8976   -8.8851 H       1  UNL1        0.1496
     44 C          16.8691   70.8809   -5.8521 C.3     1  UNL1        0.1693
     45 O          16.3147   69.9020   -6.7333 O.3     1  UNL1       -0.3794
     46 H          15.5643   69.5034   -6.2723 H       1  UNL1        0.2105
@<TRIPOS>BOND
     1    29    30    1
     2    29    28    1
     3    29    36    1
     4    30    31    1
     5    30    41    1
     6    31    32    1
     7    31    34    1
     8    32    33    1
     9    32    35    1
    10    33    44    1
    11    33    36    1
    12    44    45    1
    13    39    40    1
    14    39    41   am
    15    39    42    2
    16    41    43    1
    17    28    25    1
    18    34    37    1
    19    35    38    1
    20    45    46    1
    21    15    16   ar
    22    15    20   ar
    23    15     6    1
    24    16    17   ar
    25    16    21    2
    26    17    18   ar
    27    17    23    1
    28    18    19   ar
    29    18    22    2
    30    19    20   ar
    31     6     7    1
    32     6    11    1
    33     7     8    1
    34     7     9    1
    35     8    13    1
    36     9    10    1
    37     9    12    1
    38    10    11    1
    39    10     5    1
    40    12    14    1
    41     5     4    1
    42     4     1    1
    43     1     2    2
    44     1     3    1
    45     1    24    1
    46    24    25    1
    47    25    26    2
    48    25    27    1
@<TRIPOS>MOLECULE
UD1
 46 48 0 0 0
SMALL
GASTEIGER

@<TRIPOS>ATOM
      1 P          20.7897   74.9894   -3.7291 P.3     1  UNL1        0.2189
      2 O          20.1095   75.8147   -2.7069 O.2     1  UNL1       -0.5170
      3 O          20.8394   75.7943   -5.1227 O.3     1  UNL1       -0.4371
      4 O          19.9786   73.6135   -3.9339 O.3     1  UNL1       -0.3112
      5 C          18.8505   73.6640   -3.0591 C.3     1  UNL1        0.1811
      6 C          17.2975   71.5954   -5.5564 C.3     1  UNL1        0.2383
      7 C          17.7060   70.6085   -4.4341 C.3     1  UNL1        0.1895
      8 O          16.8031   69.5040   -4.3711 O.3     1  UNL1       -0.3779
      9 C          17.5888   71.4922   -3.1650 C.3     1  UNL1        0.1713
     10 C          17.6713   72.9336   -3.7034 C.3     1  UNL1        0.1764
     11 O          17.8657   72.8504   -5.1256 O.3     1  UNL1       -0.3308
     12 O          16.3379   71.2661   -2.5116 O.3     1  UNL1       -0.3794
     13 H          17.1120   68.9300   -3.6565 H       1  UNL1        0.2106
     14 H          16.3225   70.3352   -2.2522 H       1  UNL1        0.2105
     15 N          17.8660   71.1853   -6.8409 N.ar    1  UNL1       -0.2551
     16 C          17.0577   70.7193   -7.8089 C.ar    1  UNL1        0.3323
     17 N          17.5526   70.3387   -9.0015 N.ar    1  UNL1       -0.2743
     18 C          18.8774   70.4108   -9.2418 C.ar    1  UNL1        0.2626
     19 C          19.7404   70.8938   -8.2295 C.ar    1  UNL1        0.0795
     20 C          19.2168   71.2739   -7.0443 C.ar    1  UNL1        0.0869
     21 O          15.8607   70.6484   -7.6073 O.2     1  UNL1       -0.2464
     22 O          19.3265   70.0624  -10.3181 O.2     1  UNL1       -0.2670
     23 H          16.9545   70.0095   -9.6900 H       1  UNL1        0.1734
     24 O          22.2884   74.6615   -3.2439 O.3     1  UNL1       -0.2703
     25 P          22.3761   75.0778   -1.6920 P.3     1  UNL1        0.2208
     26 O          21.4856   76.2321   -1.4400 O.2     1  UNL1       -0.5170
     27 O          23.8919   75.4809   -1.3286 O.3     1  UNL1       -0.4371
     28 O          21.9179   73.8366   -0.7754 O.3     1  UNL1       -0.2865
     29 C          23.1082   73.2540   -0.2416 C.3     1  UNL1        0.2611
     30 C          22.9541   71.7325   -0.2067 C.3     1  UNL1        0.1582
     31 C          21.7404   71.3714    0.6571 C.3     1  UNL1        0.1625
     32 C          21.8958   72.0425    2.0259 C.3     1  UNL1        0.1686
     33 C          22.1268   73.5414    1.8226 C.3     1  UNL1        0.1760
     34 O          21.6736   69.9535    0.8202 O.3     1  UNL1       -0.3801
     35 O          20.7086   71.8404    2.7948 O.3     1  UNL1       -0.3794
     36 O          23.3267   73.7477    1.0783 O.3     1  UNL1       -0.3263
     37 H          20.8977   69.7715    1.3680 H       1  UNL1        0.2105
     38 H          20.8488   72.2786    3.6462 H       1  UNL1        0.2105
     39 C          21.5101   70.9937   -2.0242 C.2     1  UNL1        0.2231
     40 C          21.3059   70.4748   -3.4247 C.3     1  UNL1        0.0946
     41 N          22.7551   71.2289   -1.5673 N.am    1  UNL1       -0.2994
     42 O          20.5534   71.1988   -1.3081 O.2     1  UNL1       -0.2751
     43 H          23.5210   71.0646   -2.1400 H       1  UNL1        0.1496
     44 C          22.2510   74.2264    3.1851 C.3     1  UNL1        0.1693
     45 O          20.9559   74.6278    3.6367 O.3     1  UNL1       -0.3794
     46 H          21.0788   75.0541    4.4956 H       1  UNL1        0.2105
@<TRIPOS>BOND
     1    29    30    1
     2    29    28    1
     3    29    36    1
     4    30    31    1
     5    30    41    1
     6    31    32    1
     7    31    34    1
     8    32    33    1
     9    32    35    1
    10    33    44    1
    11    33    36    1
    12    44    45    1
    13    39    40    1
    14    39    41   am
    15    39    42    2
    16    41    43    1
    17    28    25    1
    18    34    37    1
    19    35    38    1
    20    45    46    1
    21    15    16   ar
    22    15    20   ar
    23    15     6    1
    24    16    17   ar
    25    16    21    2
    26    17    18   ar
    27    17    23    1
    28    18    19   ar
    29    18    22    2
    30    19    20   ar
    31     6     7    1
    32     6    11    1
    33     7     8    1
    34     7     9    1
    35     8    13    1
    36     9    10    1
    37     9    12    1
    38    10    11    1
    39    10     5    1
    40    12    14    1
    41     5     4    1
    42     4     1    1
    43     1     2    2
    44     1     3    1
    45     1    24    1
    46    24    25    1
    47    25    26    2
    48    25    27    1
@<TRIPOS>MOLECULE
UD1
 46 48 0 0 0
SMALL
GASTEIGER

@<TRIPOS>ATOM
      1 P          20.4607   70.1193   -2.1770 P.3     1  UNL1        0.2189
      2 O          21.6664   69.5560   -2.8233 O.2     1  UNL1       -0.5170
      3 O          19.2099   69.1362   -2.4249 O.3     1  UNL1       -0.4371
      4 O          20.1394   71.5649   -2.8094 O.3     1  UNL1       -0.3112
      5 C          18.8582   71.9576   -2.3145 C.3     1  UNL1        0.1811
      6 C          17.7954   72.9656   -5.5980 C.3     1  UNL1        0.2383
      7 C          16.5755   72.2141   -5.0088 C.3     1  UNL1        0.1895
      8 O          15.3527   72.7391   -5.5268 O.3     1  UNL1       -0.3779
      9 C          16.7088   72.5146   -3.4932 C.3     1  UNL1        0.1713
     10 C          18.1902   72.9001   -3.3168 C.3     1  UNL1        0.1764
     11 O          18.8226   72.7749   -4.6020 O.3     1  UNL1       -0.3308
     12 O          15.8553   73.5991   -3.1212 O.3     1  UNL1       -0.3794
     13 H          14.6360   72.2304   -5.1230 H       1  UNL1        0.2106
     14 H          14.9497   73.3193   -3.3104 H       1  UNL1        0.2105
     15 N          18.1999   72.3781   -6.8757 N.ar    1  UNL1       -0.2551
     16 C          18.7712   73.1528   -7.8142 C.ar    1  UNL1        0.3323
     17 N          19.1567   72.6385   -8.9970 N.ar    1  UNL1       -0.2743
     18 C          18.9659   71.3307   -9.2639 C.ar    1  UNL1        0.2626
     19 C          18.3602   70.5049   -8.2871 C.ar    1  UNL1        0.0795
     20 C          17.9879   71.0456   -7.1071 C.ar    1  UNL1        0.0869
     21 O          18.9500   74.3342   -7.5884 O.2     1  UNL1       -0.2464
     22 O          19.3098   70.8656  -10.3348 O.2     1  UNL1       -0.2670
     23 H          19.5716   73.2109   -9.6606 H       1  UNL1        0.1734
     24 O          20.7204   70.2710   -0.5964 O.3     1  UNL1       -0.2703
     25 P          22.2924   70.5589   -0.4090 P.3     1  UNL1        0.2208
     26 O          22.9217   70.7423   -1.7354 O.2     1  UNL1       -0.5170
     27 O          22.9810   69.3130    0.3431 O.3     1  UNL1       -0.4371
     28 O          22.4941   71.8923    0.4695 O.3     1  UNL1       -0.2865
     29 C          21.2383   72.5735    0.4832 C.3     1  UNL1        0.2611
     30 C          21.4191   73.9775   -0.0967 C.3     1  UNL1        0.1582
     31 C          22.4553   74.7360    0.7403 C.3     1  UNL1        0.1625
     32 C          22.0274   74.6881    2.2109 C.3     1  UNL1        0.1686
     33 C          21.8038   73.2300    2.6176 C.3     1  UNL1        0.1760
     34 O          22.5235   76.0942    0.3020 O.3     1  UNL1       -0.3801
     35 O          23.0519   75.2612    3.0256 O.3     1  UNL1       -0.3794
     36 O          20.7621   72.6626    1.8243 O.3     1  UNL1       -0.3263
     37 H          23.1856   76.5329    0.8537 H       1  UNL1        0.2105
     38 H          22.7426   75.2100    3.9411 H       1  UNL1        0.2105
     39 C          23.1976   73.9825   -1.7613 C.2     1  UNL1        0.2231
     40 C          23.6757   73.8819   -3.1874 C.3     1  UNL1        0.0946
     41 N          21.8840   73.8793   -1.4818 N.am    1  UNL1       -0.2994
     42 O          23.9956   74.1572   -0.8653 O.2     1  UNL1       -0.2751
     43 H          21.2452   73.7398   -2.1988 H       1  UNL1        0.1496
     44 C          21.4075   73.1688    4.0942 C.3     1  UNL1        0.1693
     45 O          22.1016   72.0935    4.7299 O.3     1  UNL1       -0.3794
     46 H          21.8240   72.0899    5.6560 H       1  UNL1        0.2105
@<TRIPOS>BOND
     1    29    30    1
     2    29    28    1
     3    29    36    1
     4    30    31    1
     5    30    41    1
     6    31    32    1
     7    31    34    1
     8    32    33    1
     9    32    35    1
    10    33    44    1
    11    33    36    1
    12    44    45    1
    13    39    40    1
    14    39    41   am
    15    39    42    2
    16    41    43    1
    17    28    25    1
    18    34    37    1
    19    35    38    1
    20    45    46    1
    21    15    16   ar
    22    15    20   ar
    23    15     6    1
    24    16    17   ar
    25    16    21    2
    26    17    18   ar
    27    17    23    1
    28    18    19   ar
    29    18    22    2
    30    19    20   ar
    31     6     7    1
    32     6    11    1
    33     7     8    1
    34     7     9    1
    35     8    13    1
    36     9    10    1
    37     9    12    1
    38    10    11    1
    39    10     5    1
    40    12    14    1
    41     5     4    1
    42     4     1    1
    43     1     2    2
    44     1     3    1
    45     1    24    1
    46    24    25    1
    47    25    26    2
    48    25    27    1
@<TRIPOS>MOLECULE
UD1
 46 48 0 0 0
SMALL
GASTEIGER

@<TRIPOS>ATOM
      1 P          23.0005   72.6974   -3.2429 P.3     1  UNL1        0.2189
      2 O          23.3300   71.2867   -2.9427 O.2     1  UNL1       -0.5170
      3 O          23.9921   73.2488   -4.3853 O.3     1  UNL1       -0.4371
      4 O          23.1737   73.5837   -1.9098 O.3     1  UNL1       -0.3112
      5 C          23.1877   74.9515   -2.3211 C.3     1  UNL1        0.1811
      6 C          23.6971   75.6326    1.1723 C.3     1  UNL1        0.2383
      7 C          25.0956   75.2190    0.6495 C.3     1  UNL1        0.1895
      8 O          26.1302   75.8783    1.3805 O.3     1  UNL1       -0.3779
      9 C          25.0538   75.7147   -0.8194 C.3     1  UNL1        0.1713
     10 C          23.5497   75.8397   -1.1297 C.3     1  UNL1        0.1764
     11 O          22.8325   75.4065    0.0388 O.3     1  UNL1       -0.3308
     12 O          25.7028   76.9826   -0.9383 O.3     1  UNL1       -0.3794
     13 H          26.9710   75.5787    1.0080 H       1  UNL1        0.2106
     14 H          26.6232   76.8510   -0.6743 H       1  UNL1        0.2105
     15 N          23.2963   74.7941    2.3026 N.ar    1  UNL1       -0.2551
     16 C          23.5154   75.2198    3.5588 C.ar    1  UNL1        0.3323
     17 N          23.1535   74.4712    4.6175 N.ar    1  UNL1       -0.2743
     18 C          22.5699   73.2699    4.4325 C.ar    1  UNL1        0.2626
     19 C          22.3387   72.8068    3.1153 C.ar    1  UNL1        0.0795
     20 C          22.7068   73.5804    2.0715 C.ar    1  UNL1        0.0869
     21 O          24.0408   76.3011    3.7419 O.2     1  UNL1       -0.2464
     22 O          22.2466   72.5900    5.3889 O.2     1  UNL1       -0.2670
     23 H          23.3148   74.7960    5.5167 H       1  UNL1        0.1734
     24 O          21.4794   72.7953   -3.7582 O.3     1  UNL1       -0.2703
     25 P          21.5421   73.0939   -5.3382 P.3     1  UNL1        0.2208
     26 O          22.8248   72.5974   -5.8833 O.2     1  UNL1       -0.5170
     27 O          21.4309   74.6802   -5.5901 O.3     1  UNL1       -0.4371
     28 O          20.3212   72.3480   -6.0755 O.3     1  UNL1       -0.2865
     29 C          19.1251   73.0237   -5.6831 C.3     1  UNL1        0.2611
     30 C          18.1396   72.0088   -5.1009 C.3     1  UNL1        0.1582
     31 C          17.8361   70.9414   -6.1583 C.3     1  UNL1        0.1625
     32 C          17.3714   71.6399   -7.4406 C.3     1  UNL1        0.1686
     33 C          18.4165   72.6806   -7.8480 C.3     1  UNL1        0.1760
     34 O          16.8058   70.0741   -5.6812 O.3     1  UNL1       -0.3801
     35 O          17.2238   70.6749   -8.4839 O.3     1  UNL1       -0.3794
     36 O          18.5465   73.6615   -6.8196 O.3     1  UNL1       -0.3263
     37 H          16.6475   69.4199   -6.3756 H       1  UNL1        0.2105
     38 H          16.9315   71.1563   -9.2709 H       1  UNL1        0.2105
     39 C          19.4194   70.2255   -4.0444 C.2     1  UNL1        0.2231
     40 C          20.0258   69.5736   -2.8280 C.3     1  UNL1        0.0946
     41 N          18.7293   71.3754   -3.9196 N.am    1  UNL1       -0.2994
     42 O          19.5522   69.7143   -5.1359 O.2     1  UNL1       -0.2751
     43 H          18.6227   71.7846   -3.0462 H       1  UNL1        0.1496
     44 C          17.9773   73.3616   -9.1459 C.3     1  UNL1        0.1693
     45 O          18.3876   72.5695  -10.2623 O.3     1  UNL1       -0.3794
     46 H          18.0925   73.0329  -11.0577 H       1  UNL1        0.2105
@<TRIPOS>BOND
     1    29    30    1
     2    29    28    1
     3    29    36    1
     4    30    31    1
     5    30    41    1
     6    31    32    1
     7    31    34    1
     8    32    33    1
     9    32    35    1
    10    33    44    1
    11    33    36    1
    12    44    45    1
    13    39    40    1
    14    39    41   am
    15    39    42    2
    16    41    43    1
    17    28    25    1
    18    34    37    1
    19    35    38    1
    20    45    46    1
    21    15    16   ar
    22    15    20   ar
    23    15     6    1
    24    16    17   ar
    25    16    21    2
    26    17    18   ar
    27    17    23    1
    28    18    19   ar
    29    18    22    2
    30    19    20   ar
    31     6     7    1
    32     6    11    1
    33     7     8    1
    34     7     9    1
    35     8    13    1
    36     9    10    1
    37     9    12    1
    38    10    11    1
    39    10     5    1
    40    12    14    1
    41     5     4    1
    42     4     1    1
    43     1     2    2
    44     1     3    1
    45     1    24    1
    46    24    25    1
    47    25    26    2
    48    25    27    1
@<TRIPOS>MOLECULE
UD1
 46 48 0 0 0
SMALL
GASTEIGER

@<TRIPOS>ATOM
      1 P          20.4756   70.5430   -2.4835 P.3     1  UNL1        0.2189
      2 O          21.7503   69.8900   -2.8546 O.2     1  UNL1       -0.5170
      3 O          19.3750   69.4178   -2.1445 O.3     1  UNL1       -0.4371
      4 O          19.9580   71.4455   -3.7125 O.3     1  UNL1       -0.3112
      5 C          18.6837   70.9280   -4.0981 C.3     1  UNL1        0.1811
      6 C          18.7894   72.9198   -7.0896 C.3     1  UNL1        0.2383
      7 C          18.3777   71.5082   -7.5775 C.3     1  UNL1        0.1895
      8 O          17.5418   71.5902   -8.7324 O.3     1  UNL1       -0.3779
      9 C          17.5878   70.9606   -6.3604 C.3     1  UNL1        0.1713
     10 C          18.0750   71.8222   -5.1794 C.3     1  UNL1        0.1764
     11 O          19.0735   72.7231   -5.6881 O.3     1  UNL1       -0.3308
     12 O          16.1823   71.1245   -6.5613 O.3     1  UNL1       -0.3794
     13 H          17.3224   70.6826   -8.9845 H       1  UNL1        0.2106
     14 H          15.9506   70.6108   -7.3465 H       1  UNL1        0.2105
     15 N          19.9821   73.3867   -7.7974 N.ar    1  UNL1       -0.2551
     16 C          20.8405   72.4926   -8.3181 C.ar    1  UNL1        0.3323
     17 N          21.9435   72.8935   -8.9776 N.ar    1  UNL1       -0.2743
     18 C          22.2108   74.2074   -9.1189 C.ar    1  UNL1        0.2626
     19 C          21.3186   75.1594   -8.5704 C.ar    1  UNL1        0.0795
     20 C          20.2170   74.7298   -7.9184 C.ar    1  UNL1        0.0869
     21 O          20.6132   71.3040   -8.1990 O.2     1  UNL1       -0.2464
     22 O          23.2102   74.5709   -9.7108 O.2     1  UNL1       -0.2670
     23 H          22.5493   72.2348   -9.3509 H       1  UNL1        0.1734
     24 O          20.7062   71.4757   -1.1929 O.3     1  UNL1       -0.2703
     25 P          21.9496   70.8515   -0.3844 P.3     1  UNL1        0.2208
     26 O          23.0637   70.5862   -1.3210 O.2     1  UNL1       -0.5170
     27 O          21.4982   69.4736    0.3154 O.3     1  UNL1       -0.4371
     28 O          22.4338   71.8915    0.7445 O.3     1  UNL1       -0.2865
     29 C          21.5653   73.0232    0.6654 C.3     1  UNL1        0.2611
     30 C          22.3628   74.2397    0.1921 C.3     1  UNL1        0.1582
     31 C          23.5069   74.5034    1.1776 C.3     1  UNL1        0.1625
     32 C          22.9215   74.6165    2.5892 C.3     1  UNL1        0.1686
     33 C          22.0842   73.3699    2.8828 C.3     1  UNL1        0.1760
     34 O          24.1667   75.7222    0.8302 O.3     1  UNL1       -0.3801
     35 O          23.9831   74.7158    3.5403 O.3     1  UNL1       -0.3794
     36 O          21.0065   73.2825    1.9514 O.3     1  UNL1       -0.3263
     37 H          24.8773   75.8485    1.4740 H       1  UNL1        0.2105
     38 H          23.5711   74.7842    4.4133 H       1  UNL1        0.2105
     39 C          22.1973   74.2856   -2.2379 C.2     1  UNL1        0.2231
     40 C          22.7639   74.0145   -3.6082 C.3     1  UNL1        0.0946
     41 N          22.9130   73.9771   -1.1394 N.am    1  UNL1       -0.2994
     42 O          21.0965   74.7810   -2.1242 O.2     1  UNL1       -0.2751
     43 H          23.7939   73.5804   -1.2301 H       1  UNL1        0.1496
     44 C          21.5214   73.4579    4.3029 C.3     1  UNL1        0.1693
     45 O          21.9796   72.3410    5.0674 O.3     1  UNL1       -0.3794
     46 H          21.6030   72.4346    5.9529 H       1  UNL1        0.2105
@<TRIPOS>BOND
     1    29    30    1
     2    29    28    1
     3    29    36    1
     4    30    31    1
     5    30    41    1
     6    31    32    1
     7    31    34    1
     8    32    33    1
     9    32    35    1
    10    33    44    1
    11    33    36    1
    12    44    45    1
    13    39    40    1
    14    39    41   am
    15    39    42    2
    16    41    43    1
    17    28    25    1
    18    34    37    1
    19    35    38    1
    20    45    46    1
    21    15    16   ar
    22    15    20   ar
    23    15     6    1
    24    16    17   ar
    25    16    21    2
    26    17    18   ar
    27    17    23    1
    28    18    19   ar
    29    18    22    2
    30    19    20   ar
    31     6     7    1
    32     6    11    1
    33     7     8    1
    34     7     9    1
    35     8    13    1
    36     9    10    1
    37     9    12    1
    38    10    11    1
    39    10     5    1
    40    12    14    1
    41     5     4    1
    42     4     1    1
    43     1     2    2
    44     1     3    1
    45     1    24    1
    46    24    25    1
    47    25    26    2
    48    25    27    1
@<TRIPOS>MOLECULE
UD1
 46 48 0 0 0
SMALL
GASTEIGER

@<TRIPOS>ATOM
      1 P          22.3648   71.7745   -3.0091 P.3     1  UNL1        0.2189
      2 O          22.7612   70.4471   -2.4899 O.2     1  UNL1       -0.5170
      3 O          23.6780   72.5854   -3.4679 O.3     1  UNL1       -0.4371
      4 O          21.6040   72.5971   -1.8527 O.3     1  UNL1       -0.3112
      5 C          22.6071   73.2942   -1.1124 C.3     1  UNL1        0.1811
      6 C          22.7249   73.2071    2.4801 C.3     1  UNL1        0.2383
      7 C          21.2740   72.7925    2.1291 C.3     1  UNL1        0.1895
      8 O          20.7482   71.8946    3.1071 O.3     1  UNL1       -0.3779
      9 C          21.4604   72.0780    0.7653 C.3     1  UNL1        0.1713
     10 C          22.8072   72.6141    0.2428 C.3     1  UNL1        0.1764
     11 O          23.2909   73.5691    1.2025 O.3     1  UNL1       -0.3308
     12 O          21.5146   70.6612    0.9460 O.3     1  UNL1       -0.3794
     13 H          19.8470   71.6766    2.8316 H       1  UNL1        0.2106
     14 H          20.6680   70.3960    1.3296 H       1  UNL1        0.2105
     15 N          22.7318   74.3524    3.3909 N.ar    1  UNL1       -0.2551
     16 C          22.1424   75.5023    3.0200 C.ar    1  UNL1        0.3323
     17 N          22.1301   76.5706    3.8391 N.ar    1  UNL1       -0.2743
     18 C          22.7213   76.5058    5.0491 C.ar    1  UNL1        0.2626
     19 C          23.3507   75.3033    5.4499 C.ar    1  UNL1        0.0795
     20 C          23.3436   74.2454    4.6108 C.ar    1  UNL1        0.0869
     21 O          21.6049   75.5762    1.9318 O.2     1  UNL1       -0.2464
     22 O          22.7150   77.4726    5.7885 O.2     1  UNL1       -0.2670
     23 H          21.6961   77.3906    3.5572 H       1  UNL1        0.1734
     24 O          21.3817   71.5863   -4.2689 O.3     1  UNL1       -0.2703
     25 P          21.5556   72.8918   -5.1934 P.3     1  UNL1        0.2208
     26 O          22.8207   72.7925   -5.9540 O.2     1  UNL1       -0.5170
     27 O          21.5903   74.2068   -4.2651 O.3     1  UNL1       -0.4371
     28 O          20.3194   72.9932   -6.2191 O.3     1  UNL1       -0.2865
     29 C          20.8728   73.2490   -7.5112 C.3     1  UNL1        0.2611
     30 C          20.1671   74.4553   -8.1330 C.3     1  UNL1        0.1582
     31 C          18.6665   74.1600   -8.2359 C.3     1  UNL1        0.1625
     32 C          18.4776   72.8365   -8.9849 C.3     1  UNL1        0.1686
     33 C          19.3086   71.7515   -8.2967 C.3     1  UNL1        0.1760
     34 O          18.0187   75.2146   -8.9497 O.3     1  UNL1       -0.3801
     35 O          17.0972   72.4684   -8.9641 O.3     1  UNL1       -0.3794
     36 O          20.6910   72.1029   -8.3399 O.3     1  UNL1       -0.3263
     37 H          17.0793   74.9885   -8.9904 H       1  UNL1        0.2105
     38 H          17.0236   71.6316   -9.4446 H       1  UNL1        0.2105
     39 C          19.4522   75.9864   -6.3784 C.2     1  UNL1        0.2231
     40 C          19.6699   77.2006   -5.5119 C.3     1  UNL1        0.0946
     41 N          20.3784   75.6344   -7.2907 N.am    1  UNL1       -0.2994
     42 O          18.4425   75.3265   -6.2547 O.2     1  UNL1       -0.2751
     43 H          21.1864   76.1625   -7.3901 H       1  UNL1        0.1496
     44 C          19.1015   70.4180   -9.0179 C.3     1  UNL1        0.1693
     45 O          18.8042   70.6616  -10.3943 O.3     1  UNL1       -0.3794
     46 H          18.6810   69.7980  -10.8110 H       1  UNL1        0.2105
@<TRIPOS>BOND
     1    29    30    1
     2    29    28    1
     3    29    36    1
     4    30    31    1
     5    30    41    1
     6    31    32    1
     7    31    34    1
     8    32    33    1
     9    32    35    1
    10    33    44    1
    11    33    36    1
    12    44    45    1
    13    39    40    1
    14    39    41   am
    15    39    42    2
    16    41    43    1
    17    28    25    1
    18    34    37    1
    19    35    38    1
    20    45    46    1
    21    15    16   ar
    22    15    20   ar
    23    15     6    1
    24    16    17   ar
    25    16    21    2
    26    17    18   ar
    27    17    23    1
    28    18    19   ar
    29    18    22    2
    30    19    20   ar
    31     6     7    1
    32     6    11    1
    33     7     8    1
    34     7     9    1
    35     8    13    1
    36     9    10    1
    37     9    12    1
    38    10    11    1
    39    10     5    1
    40    12    14    1
    41     5     4    1
    42     4     1    1
    43     1     2    2
    44     1     3    1
    45     1    24    1
    46    24    25    1
    47    25    26    2
    48    25    27    1
@<TRIPOS>MOLECULE
UD1
 46 48 0 0 0
SMALL
GASTEIGER

@<TRIPOS>ATOM
      1 P          20.5452   69.9978   -2.7483 P.3     1  UNL1        0.2189
      2 O          19.7898   68.7802   -3.1165 O.2     1  UNL1       -0.5170
      3 O          22.1040   69.7869   -3.0921 O.3     1  UNL1       -0.4371
      4 O          20.3774   70.2763   -1.1712 O.3     1  UNL1       -0.3112
      5 C          20.7509   71.6370   -0.9492 C.3     1  UNL1        0.1811
      6 C          22.9971   72.1468    1.8116 C.3     1  UNL1        0.2383
      7 C          22.6884   70.6288    1.8375 C.3     1  UNL1        0.1895
      8 O          23.7982   69.8902    2.3495 O.3     1  UNL1       -0.3779
      9 C          22.4618   70.3169    0.3353 C.3     1  UNL1        0.1713
     10 C          22.1278   71.6872   -0.2853 C.3     1  UNL1        0.1764
     11 O          22.1217   72.6518    0.7809 O.3     1  UNL1       -0.3308
     12 O          23.6480   69.7724   -0.2471 O.3     1  UNL1       -0.3794
     13 H          23.5424   68.9575    2.3398 H       1  UNL1        0.2106
     14 H          23.8371   68.9491    0.2225 H       1  UNL1        0.2105
     15 N          22.6845   72.7626    3.1017 N.ar    1  UNL1       -0.2551
     16 C          21.4508   72.6333    3.6202 C.ar    1  UNL1        0.3323
     17 N          21.1363   73.1857    4.8068 N.ar    1  UNL1       -0.2743
     18 C          22.0579   73.8901    5.4941 C.ar    1  UNL1        0.2626
     19 C          23.3588   74.0391    4.9570 C.ar    1  UNL1        0.0795
     20 C          23.6489   73.4700    3.7673 C.ar    1  UNL1        0.0869
     21 O          20.6087   72.0009    3.0123 O.2     1  UNL1       -0.2464
     22 O          21.7732   74.3940    6.5648 O.2     1  UNL1       -0.2670
     23 H          20.2428   73.0784    5.1680 H       1  UNL1        0.1734
     24 O          19.9767   71.2536   -3.5781 O.3     1  UNL1       -0.2703
     25 P          18.4343   70.9338   -3.9068 P.3     1  UNL1        0.2208
     26 O          17.7287   70.5719   -2.6578 O.2     1  UNL1       -0.5170
     27 O          18.3494   69.7063   -4.9452 O.3     1  UNL1       -0.4371
     28 O          17.7421   72.2334   -4.5567 O.3     1  UNL1       -0.2865
     29 C          16.8272   71.7636   -5.5484 C.3     1  UNL1        0.2611
     30 C          17.1682   72.4051   -6.8945 C.3     1  UNL1        0.1582
     31 C          17.0834   73.9296   -6.7591 C.3     1  UNL1        0.1625
     32 C          15.7076   74.2955   -6.1922 C.3     1  UNL1        0.1686
     33 C          15.4781   73.5135   -4.8972 C.3     1  UNL1        0.1760
     34 O          17.2526   74.5345   -8.0424 O.3     1  UNL1       -0.3801
     35 O          15.6602   75.6975   -5.9204 O.3     1  UNL1       -0.3794
     36 O          15.4975   72.1129   -5.1698 O.3     1  UNL1       -0.3263
     37 H          17.1926   75.4907   -7.9106 H       1  UNL1        0.2105
     38 H          14.7795   75.8840   -5.5653 H       1  UNL1        0.2105
     39 C          18.7157   70.9969   -8.1421 C.2     1  UNL1        0.2231
     40 C          20.1129   70.6031   -8.5484 C.3     1  UNL1        0.0946
     41 N          18.5252   72.0224   -7.2899 N.am    1  UNL1       -0.2994
     42 O          17.7626   70.3901   -8.5820 O.2     1  UNL1       -0.2751
     43 H          19.2878   72.5081   -6.9375 H       1  UNL1        0.1496
     44 C          14.1200   73.8964   -4.3056 C.3     1  UNL1        0.1693
     45 O          14.2818   75.0045   -3.4179 O.3     1  UNL1       -0.3794
     46 H          13.4052   75.2129   -3.0678 H       1  UNL1        0.2105
@<TRIPOS>BOND
     1    29    30    1
     2    29    28    1
     3    29    36    1
     4    30    31    1
     5    30    41    1
     6    31    32    1
     7    31    34    1
     8    32    33    1
     9    32    35    1
    10    33    44    1
    11    33    36    1
    12    44    45    1
    13    39    40    1
    14    39    41   am
    15    39    42    2
    16    41    43    1
    17    28    25    1
    18    34    37    1
    19    35    38    1
    20    45    46    1
    21    15    16   ar
    22    15    20   ar
    23    15     6    1
    24    16    17   ar
    25    16    21    2
    26    17    18   ar
    27    17    23    1
    28    18    19   ar
    29    18    22    2
    30    19    20   ar
    31     6     7    1
    32     6    11    1
    33     7     8    1
    34     7     9    1
    35     8    13    1
    36     9    10    1
    37     9    12    1
    38    10    11    1
    39    10     5    1
    40    12    14    1
    41     5     4    1
    42     4     1    1
    43     1     2    2
    44     1     3    1
    45     1    24    1
    46    24    25    1
    47    25    26    2
    48    25    27    1
@<TRIPOS>MOLECULE
UD1
 46 48 0 0 0
SMALL
GASTEIGER

@<TRIPOS>ATOM
      1 P          22.9583   72.2563   -3.0323 P.3     1  UNL1        0.2189
      2 O          23.3830   70.8401   -3.0869 O.2     1  UNL1       -0.5170
      3 O          23.7396   73.0949   -4.1632 O.3     1  UNL1       -0.4371
      4 O          23.3027   72.8637   -1.5814 O.3     1  UNL1       -0.3112
      5 C          22.8243   71.9259   -0.6159 C.3     1  UNL1        0.1811
      6 C          20.7671   73.3314    1.9763 C.3     1  UNL1        0.2383
      7 C          21.2244   74.5521    1.1390 C.3     1  UNL1        0.1895
      8 O          20.2370   75.5836    1.1578 O.3     1  UNL1       -0.3779
      9 C          21.3596   73.9413   -0.2801 C.3     1  UNL1        0.1713
     10 C          21.5067   72.4289   -0.0243 C.3     1  UNL1        0.1764
     11 O          21.5034   72.2318    1.3999 O.3     1  UNL1       -0.3308
     12 O          20.1898   74.2127   -1.0552 O.3     1  UNL1       -0.3794
     13 H          20.5816   76.3110    0.6214 H       1  UNL1        0.2106
     14 H          20.1206   75.1738   -1.1292 H       1  UNL1        0.2105
     15 N          21.1200   73.5067    3.3856 N.ar    1  UNL1       -0.2551
     16 C          20.2023   73.9752    4.2490 C.ar    1  UNL1        0.3323
     17 N          20.4980   74.1427    5.5516 N.ar    1  UNL1       -0.2743
     18 C          21.7310   73.8495    6.0116 C.ar    1  UNL1        0.2626
     19 C          22.7086   73.3611    5.1124 C.ar    1  UNL1        0.0795
     20 C          22.3835   73.1976    3.8120 C.ar    1  UNL1        0.0869
     21 O          19.0858   74.2440    3.8493 O.2     1  UNL1       -0.2464
     22 O          22.0009   74.0051    7.1882 O.2     1  UNL1       -0.2670
     23 H          19.8223   74.4772    6.1613 H       1  UNL1        0.1734
     24 O          21.3732   72.3516   -3.2913 O.3     1  UNL1       -0.2703
     25 P          21.1790   72.8200   -4.8184 P.3     1  UNL1        0.2208
     26 O          22.2401   72.2202   -5.6570 O.2     1  UNL1       -0.5170
     27 O          21.2714   74.4251   -4.9041 O.3     1  UNL1       -0.4371
     28 O          19.7383   72.3377   -5.3500 O.3     1  UNL1       -0.2865
     29 C          19.8672   70.9596   -5.7040 C.3     1  UNL1        0.2611
     30 C          18.7081   70.5630   -6.6200 C.3     1  UNL1        0.1582
     31 C          17.3839   70.8125   -5.8894 C.3     1  UNL1        0.1625
     32 C          17.4250   70.0887   -4.5394 C.3     1  UNL1        0.1686
     33 C          18.6796   70.5236   -3.7789 C.3     1  UNL1        0.1760
     34 O          16.3016   70.3080   -6.6741 O.3     1  UNL1       -0.3801
     35 O          16.2629   70.4271   -3.7801 O.3     1  UNL1       -0.3794
     36 O          19.8432   70.1624   -4.5219 O.3     1  UNL1       -0.3263
     37 H          15.4905   70.4858   -6.1784 H       1  UNL1        0.2105
     38 H          16.3296   69.9518   -2.9398 H       1  UNL1        0.2105
     39 C          19.5438   70.9941   -8.8673 C.2     1  UNL1        0.2231
     40 C          19.5898   71.8227  -10.1257 C.3     1  UNL1        0.0946
     41 N          18.7528   71.3673   -7.8429 N.am    1  UNL1       -0.2994
     42 O          20.2195   69.9915   -8.7765 O.2     1  UNL1       -0.2751
     43 H          18.2121   72.1698   -7.9152 H       1  UNL1        0.1496
     44 C          18.7135   69.8309   -2.4150 C.3     1  UNL1        0.1693
     45 O          18.2611   68.4825   -2.5538 O.3     1  UNL1       -0.3794
     46 H          18.2976   68.0832   -1.6741 H       1  UNL1        0.2105
@<TRIPOS>BOND
     1    29    30    1
     2    29    28    1
     3    29    36    1
     4    30    31    1
     5    30    41    1
     6    31    32    1
     7    31    34    1
     8    32    33    1
     9    32    35    1
    10    33    44    1
    11    33    36    1
    12    44    45    1
    13    39    40    1
    14    39    41   am
    15    39    42    2
    16    41    43    1
    17    28    25    1
    18    34    37    1
    19    35    38    1
    20    45    46    1
    21    15    16   ar
    22    15    20   ar
    23    15     6    1
    24    16    17   ar
    25    16    21    2
    26    17    18   ar
    27    17    23    1
    28    18    19   ar
    29    18    22    2
    30    19    20   ar
    31     6     7    1
    32     6    11    1
    33     7     8    1
    34     7     9    1
    35     8    13    1
    36     9    10    1
    37     9    12    1
    38    10    11    1
    39    10     5    1
    40    12    14    1
    41     5     4    1
    42     4     1    1
    43     1     2    2
    44     1     3    1
    45     1    24    1
    46    24    25    1
    47    25    26    2
    48    25    27    1
@<TRIPOS>MOLECULE
UD1
 46 48 0 0 0
SMALL
GASTEIGER

@<TRIPOS>ATOM
      1 P          20.3521   69.8955   -2.6724 P.3     1  UNL1        0.2189
      2 O          19.7306   68.6421   -3.1536 O.2     1  UNL1       -0.5170
      3 O          21.8413   70.0206   -3.2717 O.3     1  UNL1       -0.4371
      4 O          20.4219   69.8761   -1.0638 O.3     1  UNL1       -0.3112
      5 C          21.6438   70.5173   -0.6948 C.3     1  UNL1        0.1811
      6 C          21.5402   73.4894    1.3259 C.3     1  UNL1        0.2383
      7 C          22.9405   73.5189    0.6636 C.3     1  UNL1        0.1895
      8 O          23.3804   74.8618    0.4579 O.3     1  UNL1       -0.3779
      9 C          22.6755   72.8098   -0.6899 C.3     1  UNL1        0.1713
     10 C          21.3854   72.0038   -0.4441 C.3     1  UNL1        0.1764
     11 O          21.0051   72.2094    0.9271 O.3     1  UNL1       -0.3308
     12 O          22.4817   73.7717   -1.7292 O.3     1  UNL1       -0.3794
     13 H          24.2536   74.8104    0.0453 H       1  UNL1        0.2106
     14 H          23.3001   74.2819   -1.7935 H       1  UNL1        0.2105
     15 N          21.6528   73.5705    2.7827 N.ar    1  UNL1       -0.2551
     16 C          21.8779   72.4540    3.4968 C.ar    1  UNL1        0.3323
     17 N          21.9899   72.4995    4.8375 N.ar    1  UNL1       -0.2743
     18 C          21.8678   73.6730    5.4901 C.ar    1  UNL1        0.2626
     19 C          21.6247   74.8553    4.7512 C.ar    1  UNL1        0.0795
     20 C          21.5221   74.7818    3.4068 C.ar    1  UNL1        0.0869
     21 O          21.9905   71.3880    2.9226 O.2     1  UNL1       -0.2464
     22 O          21.9641   73.7146    6.7027 O.2     1  UNL1       -0.2670
     23 H          22.1571   71.6850    5.3363 H       1  UNL1        0.1734
     24 O          19.4707   71.1517   -3.1559 O.3     1  UNL1       -0.2703
     25 P          19.6706   71.2747   -4.7479 P.3     1  UNL1        0.2208
     26 O          19.7198   69.9218   -5.3446 O.2     1  UNL1       -0.5170
     27 O          21.0483   72.0477   -5.0583 O.3     1  UNL1       -0.4371
     28 O          18.4409   72.0966   -5.3825 O.3     1  UNL1       -0.2865
     29 C          17.3385   71.1920   -5.4693 C.3     1  UNL1        0.2611
     30 C          16.7941   71.1949   -6.8988 C.3     1  UNL1        0.1582
     31 C          16.3570   72.6174   -7.2659 C.3     1  UNL1        0.1625
     32 C          15.3827   73.1222   -6.1962 C.3     1  UNL1        0.1686
     33 C          16.0349   72.9768   -4.8197 C.3     1  UNL1        0.1760
     34 O          15.7105   72.6060   -8.5400 O.3     1  UNL1       -0.3801
     35 O          15.0767   74.4966   -6.4389 O.3     1  UNL1       -0.3794
     36 O          16.3169   71.6017   -4.5627 O.3     1  UNL1       -0.3263
     37 H          15.4531   73.5185   -8.7309 H       1  UNL1        0.2105
     38 H          14.4629   74.7734   -5.7438 H       1  UNL1        0.2105
     39 C          18.6085   71.6543   -8.4581 C.2     1  UNL1        0.2231
     40 C          19.6844   71.1952   -9.4088 C.3     1  UNL1        0.0946
     41 N          17.8398   70.7494   -7.8221 N.am    1  UNL1       -0.2994
     42 O          18.4342   72.8387   -8.2660 O.2     1  UNL1       -0.2751
     43 H          17.9789   69.8014   -7.9758 H       1  UNL1        0.1496
     44 C          15.0824   73.5084   -3.7467 C.3     1  UNL1        0.1693
     45 O          15.7797   73.6229   -2.5046 O.3     1  UNL1       -0.3794
     46 H          15.1453   73.9598   -1.8576 H       1  UNL1        0.2105
@<TRIPOS>BOND
     1    29    30    1
     2    29    28    1
     3    29    36    1
     4    30    31    1
     5    30    41    1
     6    31    32    1
     7    31    34    1
     8    32    33    1
     9    32    35    1
    10    33    44    1
    11    33    36    1
    12    44    45    1
    13    39    40    1
    14    39    41   am
    15    39    42    2
    16    41    43    1
    17    28    25    1
    18    34    37    1
    19    35    38    1
    20    45    46    1
    21    15    16   ar
    22    15    20   ar
    23    15     6    1
    24    16    17   ar
    25    16    21    2
    26    17    18   ar
    27    17    23    1
    28    18    19   ar
    29    18    22    2
    30    19    20   ar
    31     6     7    1
    32     6    11    1
    33     7     8    1
    34     7     9    1
    35     8    13    1
    36     9    10    1
    37     9    12    1
    38    10    11    1
    39    10     5    1
    40    12    14    1
    41     5     4    1
    42     4     1    1
    43     1     2    2
    44     1     3    1
    45     1    24    1
    46    24    25    1
    47    25    26    2
    48    25    27    1
@<TRIPOS>MOLECULE
UD1
 46 48 0 0 0
SMALL
GASTEIGER

@<TRIPOS>ATOM
      1 P          22.6138   71.7978   -3.2092 P.3     1  UNL1        0.2189
      2 O          23.4372   70.5924   -2.9688 O.2     1  UNL1       -0.5170
      3 O          23.5731   73.0405   -3.5668 O.3     1  UNL1       -0.4371
      4 O          21.7649   72.1402   -1.8845 O.3     1  UNL1       -0.3112
      5 C          22.5144   73.1108   -1.1520 C.3     1  UNL1        0.1811
      6 C          22.6563   73.3909    2.4297 C.3     1  UNL1        0.2383
      7 C          21.2485   72.8119    2.1410 C.3     1  UNL1        0.1895
      8 O          20.8129   71.9707    3.2096 O.3     1  UNL1       -0.3779
      9 C          21.4942   71.9861    0.8515 C.3     1  UNL1        0.1713
     10 C          22.7831   72.5894    0.2605 C.3     1  UNL1        0.1764
     11 O          23.1804   73.6752    1.1151 O.3     1  UNL1       -0.3308
     12 O          21.6806   70.6053    1.1696 O.3     1  UNL1       -0.3794
     13 H          19.9346   71.6446    2.9692 H       1  UNL1        0.2106
     14 H          20.8641   70.3026    1.5889 H       1  UNL1        0.2105
     15 N          22.5611   74.6165    3.2236 N.ar    1  UNL1       -0.2551
     16 C          22.6413   74.5501    4.5639 C.ar    1  UNL1        0.3323
     17 N          22.5608   75.6616    5.3191 N.ar    1  UNL1       -0.2743
     18 C          22.3880   76.8663    4.7387 C.ar    1  UNL1        0.2626
     19 C          22.2960   76.9500    3.3290 C.ar    1  UNL1        0.0795
     20 C          22.3852   75.8199    2.5953 C.ar    1  UNL1        0.0869
     21 O          22.7972   73.4708    5.1020 O.2     1  UNL1       -0.2464
     22 O          22.3104   77.8714    5.4208 O.2     1  UNL1       -0.2670
     23 H          22.6255   75.5956    6.2843 H       1  UNL1        0.1734
     24 O          21.6080   71.5249   -4.4351 O.3     1  UNL1       -0.2703
     25 P          21.5258   72.8907   -5.2819 P.3     1  UNL1        0.2208
     26 O          22.7745   73.0672   -6.0556 O.2     1  UNL1       -0.5170
     27 O          21.3372   74.1350   -4.2778 O.3     1  UNL1       -0.4371
     28 O          20.2742   72.8233   -6.2915 O.3     1  UNL1       -0.2865
     29 C          20.2686   71.5116   -6.8577 C.3     1  UNL1        0.2611
     30 C          20.2267   71.6201   -8.3830 C.3     1  UNL1        0.1582
     31 C          18.9692   72.3931   -8.7961 C.3     1  UNL1        0.1625
     32 C          17.7491   71.7221   -8.1564 C.3     1  UNL1        0.1686
     33 C          17.9767   71.6087   -6.6476 C.3     1  UNL1        0.1760
     34 O          18.8401   72.3723  -10.2189 O.3     1  UNL1       -0.3801
     35 O          16.5839   72.5101   -8.4075 O.3     1  UNL1       -0.3794
     36 O          19.1241   70.7995   -6.3926 O.3     1  UNL1       -0.3263
     37 H          18.0386   72.8689  -10.4341 H       1  UNL1        0.2105
     38 H          15.8413   72.0530   -7.9878 H       1  UNL1        0.2105
     39 C          21.3773   73.6635   -9.0425 C.2     1  UNL1        0.2231
     40 C          22.6024   74.3938   -9.5305 C.3     1  UNL1        0.0946
     41 N          21.4167   72.3300   -8.8565 N.am    1  UNL1       -0.2994
     42 O          20.3554   74.2763   -8.8178 O.2     1  UNL1       -0.2751
     43 H          22.2342   71.8393   -9.0365 H       1  UNL1        0.1496
     44 C          16.7496   70.9691   -5.9946 C.3     1  UNL1        0.1693
     45 O          16.1702   70.0219   -6.8941 O.3     1  UNL1       -0.3794
     46 H          15.4022   69.6433   -6.4453 H       1  UNL1        0.2105
@<TRIPOS>BOND
     1    29    30    1
     2    29    28    1
     3    29    36    1
     4    30    31    1
     5    30    41    1
     6    31    32    1
     7    31    34    1
     8    32    33    1
     9    32    35    1
    10    33    44    1
    11    33    36    1
    12    44    45    1
    13    39    40    1
    14    39    41   am
    15    39    42    2
    16    41    43    1
    17    28    25    1
    18    34    37    1
    19    35    38    1
    20    45    46    1
    21    15    16   ar
    22    15    20   ar
    23    15     6    1
    24    16    17   ar
    25    16    21    2
    26    17    18   ar
    27    17    23    1
    28    18    19   ar
    29    18    22    2
    30    19    20   ar
    31     6     7    1
    32     6    11    1
    33     7     8    1
    34     7     9    1
    35     8    13    1
    36     9    10    1
    37     9    12    1
    38    10    11    1
    39    10     5    1
    40    12    14    1
    41     5     4    1
    42     4     1    1
    43     1     2    2
    44     1     3    1
    45     1    24    1
    46    24    25    1
    47    25    26    2
    48    25    27    1
@<TRIPOS>MOLECULE
UD1
 46 48 0 0 0
SMALL
GASTEIGER

@<TRIPOS>ATOM
      1 P          20.8261   75.0241   -3.2311 P.3     1  UNL1        0.2189
      2 O          20.2265   75.4779   -1.9570 O.2     1  UNL1       -0.5170
      3 O          20.9313   76.2681   -4.2479 O.3     1  UNL1       -0.4371
      4 O          19.9004   73.8779   -3.8809 O.3     1  UNL1       -0.3112
      5 C          18.9336   73.5173   -2.8932 C.3     1  UNL1        0.1811
      6 C          17.3593   71.5643   -5.4689 C.3     1  UNL1        0.2383
      7 C          17.7465   70.5317   -4.3808 C.3     1  UNL1        0.1895
      8 O          16.8257   69.4404   -4.3609 O.3     1  UNL1       -0.3779
      9 C          17.6376   71.3714   -3.0815 C.3     1  UNL1        0.1713
     10 C          17.7458   72.8296   -3.5680 C.3     1  UNL1        0.1764
     11 O          17.9456   72.7939   -4.9914 O.3     1  UNL1       -0.3308
     12 O          16.3801   71.1427   -2.4419 O.3     1  UNL1       -0.3794
     13 H          17.1219   68.8365   -3.6660 H       1  UNL1        0.2106
     14 H          16.3485   70.2035   -2.2158 H       1  UNL1        0.2105
     15 N          17.9272   71.1909   -6.7649 N.ar    1  UNL1       -0.2551
     16 C          17.1113   70.8340   -7.7720 C.ar    1  UNL1        0.3323
     17 N          17.6058   70.4896   -8.9758 N.ar    1  UNL1       -0.2743
     18 C          18.9372   70.4884   -9.1885 C.ar    1  UNL1        0.2626
     19 C          19.8079   70.8563   -8.1351 C.ar    1  UNL1        0.0795
     20 C          19.2849   71.2025   -6.9393 C.ar    1  UNL1        0.0869
     21 O          15.9082   70.8301   -7.5957 O.2     1  UNL1       -0.2464
     22 O          19.3856   70.1726  -10.2750 O.2     1  UNL1       -0.2670
     23 H          17.0023   70.2394   -9.6923 H       1  UNL1        0.1734
     24 O          22.2960   74.4323   -2.9518 O.3     1  UNL1       -0.2703
     25 P          22.6023   74.6665   -1.3895 P.3     1  UNL1        0.2208
     26 O          21.4670   75.3816   -0.7662 O.2     1  UNL1       -0.5170
     27 O          23.9417   75.5457   -1.2305 O.3     1  UNL1       -0.4371
     28 O          22.8056   73.2452   -0.6622 O.3     1  UNL1       -0.2865
     29 C          21.6330   73.0077    0.1186 C.3     1  UNL1        0.2611
     30 C          22.0381   72.4256    1.4740 C.3     1  UNL1        0.1582
     31 C          22.8113   71.1214    1.2485 C.3     1  UNL1        0.1625
     32 C          21.9650   70.1958    0.3681 C.3     1  UNL1        0.1686
     33 C          21.5680   70.9453   -0.9055 C.3     1  UNL1        0.1760
     34 O          23.0651   70.4917    2.5057 O.3     1  UNL1       -0.3801
     35 O          22.7257   69.0361    0.0243 O.3     1  UNL1       -0.3794
     36 O          20.7848   72.0893   -0.5673 O.3     1  UNL1       -0.3263
     37 H          23.5522   69.6778    2.3172 H       1  UNL1        0.2105
     38 H          22.1569   68.4826   -0.5294 H       1  UNL1        0.2105
     39 C          22.7728   73.5278    3.5184 C.2     1  UNL1        0.2231
     40 C          23.6477   74.5143    4.2490 C.3     1  UNL1        0.0946
     41 N          22.8881   73.3834    2.1842 N.am    1  UNL1       -0.2994
     42 O          21.9643   72.8643    4.1317 O.2     1  UNL1       -0.2751
     43 H          23.5349   73.9144    1.6931 H       1  UNL1        0.1496
     44 C          20.7495   70.0187   -1.8069 C.3     1  UNL1        0.1693
     45 O          21.5754   69.5334   -2.8673 O.3     1  UNL1       -0.3794
     46 H          21.0226   68.9554   -3.4104 H       1  UNL1        0.2105
@<TRIPOS>BOND
     1    29    30    1
     2    29    28    1
     3    29    36    1
     4    30    31    1
     5    30    41    1
     6    31    32    1
     7    31    34    1
     8    32    33    1
     9    32    35    1
    10    33    44    1
    11    33    36    1
    12    44    45    1
    13    39    40    1
    14    39    41   am
    15    39    42    2
    16    41    43    1
    17    28    25    1
    18    34    37    1
    19    35    38    1
    20    45    46    1
    21    15    16   ar
    22    15    20   ar
    23    15     6    1
    24    16    17   ar
    25    16    21    2
    26    17    18   ar
    27    17    23    1
    28    18    19   ar
    29    18    22    2
    30    19    20   ar
    31     6     7    1
    32     6    11    1
    33     7     8    1
    34     7     9    1
    35     8    13    1
    36     9    10    1
    37     9    12    1
    38    10    11    1
    39    10     5    1
    40    12    14    1
    41     5     4    1
    42     4     1    1
    43     1     2    2
    44     1     3    1
    45     1    24    1
    46    24    25    1
    47    25    26    2
    48    25    27    1
@<TRIPOS>MOLECULE
UD1
 46 48 0 0 0
SMALL
GASTEIGER

@<TRIPOS>ATOM
      1 P          22.4109   73.9014   -5.2727 P.3     1  UNL1        0.2189
      2 O          21.3437   74.8594   -5.6360 O.2     1  UNL1       -0.5170
      3 O          23.7506   74.7093   -4.8919 O.3     1  UNL1       -0.4371
      4 O          22.7079   72.9304   -6.5224 O.3     1  UNL1       -0.3112
      5 C          21.8488   73.3482   -7.5844 C.3     1  UNL1        0.1811
      6 C          18.8762   71.5026   -6.7568 C.3     1  UNL1        0.2383
      7 C          18.3760   72.6622   -7.6543 C.3     1  UNL1        0.1895
      8 O          17.2241   72.2698   -8.4016 O.3     1  UNL1       -0.3779
      9 C          19.5899   72.8962   -8.5907 C.3     1  UNL1        0.1713
     10 C          20.7777   72.2831   -7.8242 C.3     1  UNL1        0.1764
     11 O          20.2750   71.8031   -6.5655 O.3     1  UNL1       -0.3308
     12 O          19.3942   72.2292   -9.8396 O.3     1  UNL1       -0.3794
     13 H          16.9640   73.0325   -8.9364 H       1  UNL1        0.2106
     14 H          18.6047   72.6154  -10.2417 H       1  UNL1        0.2105
     15 N          18.1698   71.4957   -5.4753 N.ar    1  UNL1       -0.2551
     16 C          17.1489   70.6427   -5.2819 C.ar    1  UNL1        0.3323
     17 N          16.4837   70.6118   -4.1119 N.ar    1  UNL1       -0.2743
     18 C          16.8279   71.4484   -3.1122 C.ar    1  UNL1        0.2626
     19 C          17.8969   72.3557   -3.3045 C.ar    1  UNL1        0.0795
     20 C          18.5505   72.3619   -4.4861 C.ar    1  UNL1        0.0869
     21 O          16.8266   69.8819   -6.1740 O.2     1  UNL1       -0.2464
     22 O          16.2241   71.4246   -2.0557 O.2     1  UNL1       -0.2670
     23 H          15.7528   69.9867   -3.9881 H       1  UNL1        0.1734
     24 O          21.9364   73.0223   -4.0113 O.3     1  UNL1       -0.2703
     25 P          21.6659   74.0505   -2.8035 P.3     1  UNL1        0.2208
     26 O          20.4308   74.8180   -3.0764 O.2     1  UNL1       -0.5170
     27 O          22.9093   75.0650   -2.6727 O.3     1  UNL1       -0.4371
     28 O          21.4960   73.2320   -1.4281 O.3     1  UNL1       -0.2865
     29 C          22.7890   72.7338   -1.0799 C.3     1  UNL1        0.2611
     30 C          22.6945   71.2318   -0.8062 C.3     1  UNL1        0.1582
     31 C          21.6973   70.9915    0.3328 C.3     1  UNL1        0.1625
     32 C          22.1098   71.8485    1.5343 C.3     1  UNL1        0.1686
     33 C          22.2454   73.3048    1.0846 C.3     1  UNL1        0.1760
     34 O          21.7114   69.6104    0.6983 O.3     1  UNL1       -0.3801
     35 O          21.1138   71.7526    2.5542 O.3     1  UNL1       -0.3794
     36 O          23.2588   73.4084    0.0852 O.3     1  UNL1       -0.3263
     37 H          21.0713   69.5046    1.4155 H       1  UNL1        0.2105
     38 H          21.4123   72.3064    3.2896 H       1  UNL1        0.2105
     39 C          20.9374   70.2097   -2.1486 C.2     1  UNL1        0.2231
     40 C          20.4657   69.4989   -3.3914 C.3     1  UNL1        0.0946
     41 N          22.2357   70.5417   -2.0136 N.am    1  UNL1       -0.2994
     42 O          20.1480   70.4822   -1.2696 O.2     1  UNL1       -0.2751
     43 H          22.8677   70.3235   -2.7168 H       1  UNL1        0.1496
     44 C          22.6256   74.1746    2.2846 C.3     1  UNL1        0.1693
     45 O          21.6830   75.2402    2.4188 O.3     1  UNL1       -0.3794
     46 H          21.9586   75.7628    3.1840 H       1  UNL1        0.2105
@<TRIPOS>BOND
     1    29    30    1
     2    29    28    1
     3    29    36    1
     4    30    31    1
     5    30    41    1
     6    31    32    1
     7    31    34    1
     8    32    33    1
     9    32    35    1
    10    33    44    1
    11    33    36    1
    12    44    45    1
    13    39    40    1
    14    39    41   am
    15    39    42    2
    16    41    43    1
    17    28    25    1
    18    34    37    1
    19    35    38    1
    20    45    46    1
    21    15    16   ar
    22    15    20   ar
    23    15     6    1
    24    16    17   ar
    25    16    21    2
    26    17    18   ar
    27    17    23    1
    28    18    19   ar
    29    18    22    2
    30    19    20   ar
    31     6     7    1
    32     6    11    1
    33     7     8    1
    34     7     9    1
    35     8    13    1
    36     9    10    1
    37     9    12    1
    38    10    11    1
    39    10     5    1
    40    12    14    1
    41     5     4    1
    42     4     1    1
    43     1     2    2
    44     1     3    1
    45     1    24    1
    46    24    25    1
    47    25    26    2
    48    25    27    1
@<TRIPOS>MOLECULE
UD1
 46 48 0 0 0
SMALL
GASTEIGER

@<TRIPOS>ATOM
      1 P          22.8717   73.4875   -4.4231 P.3     1  UNL1        0.2189
      2 O          24.2027   73.0653   -3.9341 O.2     1  UNL1       -0.5170
      3 O          22.8711   75.0784   -4.6715 O.3     1  UNL1       -0.4371
      4 O          21.7545   73.1165   -3.3245 O.3     1  UNL1       -0.3112
      5 C          21.9305   74.0214   -2.2333 C.3     1  UNL1        0.1811
      6 C          20.3669   73.8942    1.0018 C.3     1  UNL1        0.2383
      7 C          20.3304   75.3931    0.6117 C.3     1  UNL1        0.1895
      8 O          19.1902   76.0408    1.1772 O.3     1  UNL1       -0.3779
      9 C          20.2182   75.3247   -0.9335 C.3     1  UNL1        0.1713
     10 C          20.7355   73.9163   -1.2845 C.3     1  UNL1        0.1764
     11 O          21.1404   73.2888   -0.0559 O.3     1  UNL1       -0.3308
     12 O          18.8582   75.4818   -1.3439 O.3     1  UNL1       -0.3794
     13 H          19.2268   76.9662    0.8984 H       1  UNL1        0.2106
     14 H          18.5752   76.3560   -1.0440 H       1  UNL1        0.2105
     15 N          21.0273   73.7099    2.2946 N.ar    1  UNL1       -0.2551
     16 C          21.3396   72.4709    2.7127 C.ar    1  UNL1        0.3323
     17 N          21.9508   72.2719    3.8955 N.ar    1  UNL1       -0.2743
     18 C          22.2530   73.3194    4.6889 C.ar    1  UNL1        0.2626
     19 C          21.9245   74.6287    4.2638 C.ar    1  UNL1        0.0795
     20 C          21.3164   74.8001    3.0703 C.ar    1  UNL1        0.0869
     21 O          21.0736   71.5161    2.0083 O.2     1  UNL1       -0.2464
     22 O          22.8013   73.1403    5.7607 O.2     1  UNL1       -0.2670
     23 H          22.1731   71.3717    4.1791 H       1  UNL1        0.1734
     24 O          22.5409   72.7279   -5.8023 O.3     1  UNL1       -0.2703
     25 P          21.0560   73.1732   -6.2337 P.3     1  UNL1        0.2208
     26 O          20.7956   72.7400   -7.6242 O.2     1  UNL1       -0.5170
     27 O          20.9263   74.7751   -6.1382 O.3     1  UNL1       -0.4371
     28 O          19.9820   72.4897   -5.2488 O.3     1  UNL1       -0.2865
     29 C          19.3684   71.4258   -5.9789 C.3     1  UNL1        0.2611
     30 C          17.8739   71.7143   -6.1314 C.3     1  UNL1        0.1582
     31 C          17.2448   71.8491   -4.7402 C.3     1  UNL1        0.1625
     32 C          17.5875   70.5982   -3.9241 C.3     1  UNL1        0.1686
     33 C          19.1041   70.3957   -3.9355 C.3     1  UNL1        0.1760
     34 O          15.8267   71.9694   -4.8655 O.3     1  UNL1       -0.3801
     35 O          17.1366   70.7669   -2.5788 O.3     1  UNL1       -0.3794
     36 O          19.5542   70.1995   -5.2754 O.3     1  UNL1       -0.3263
     37 H          15.4730   72.0520   -3.9692 H       1  UNL1        0.2105
     38 H          17.3726   69.9589   -2.1012 H       1  UNL1        0.2105
     39 C          16.6945   73.0676   -7.7782 C.2     1  UNL1        0.2231
     40 C          16.5051   74.3515   -8.5450 C.3     1  UNL1        0.0946
     41 N          17.6892   72.9615   -6.8763 N.am    1  UNL1       -0.2994
     42 O          15.9516   72.1295   -7.9736 O.2     1  UNL1       -0.2751
     43 H          18.2840   73.7120   -6.7198 H       1  UNL1        0.1496
     44 C          19.4597   69.1669   -3.0959 C.3     1  UNL1        0.1693
     45 O          18.3408   68.2790   -3.0527 O.3     1  UNL1       -0.3794
     46 H          18.6061   67.5205   -2.5152 H       1  UNL1        0.2105
@<TRIPOS>BOND
     1    29    30    1
     2    29    28    1
     3    29    36    1
     4    30    31    1
     5    30    41    1
     6    31    32    1
     7    31    34    1
     8    32    33    1
     9    32    35    1
    10    33    44    1
    11    33    36    1
    12    44    45    1
    13    39    40    1
    14    39    41   am
    15    39    42    2
    16    41    43    1
    17    28    25    1
    18    34    37    1
    19    35    38    1
    20    45    46    1
    21    15    16   ar
    22    15    20   ar
    23    15     6    1
    24    16    17   ar
    25    16    21    2
    26    17    18   ar
    27    17    23    1
    28    18    19   ar
    29    18    22    2
    30    19    20   ar
    31     6     7    1
    32     6    11    1
    33     7     8    1
    34     7     9    1
    35     8    13    1
    36     9    10    1
    37     9    12    1
    38    10    11    1
    39    10     5    1
    40    12    14    1
    41     5     4    1
    42     4     1    1
    43     1     2    2
    44     1     3    1
    45     1    24    1
    46    24    25    1
    47    25    26    2
    48    25    27    1
