@<TRIPOS>MOLECULE
*****
 43 45 0 0 0
SMALL
GASTEIGER

@<TRIPOS>ATOM
      1 P          23.0882   71.5910   -2.5444 P.3     1  UNL1        0.2189
      2 O          23.3200   73.1412   -2.1438 O.co2   1  UNL1       -0.4371
      3 O          24.2872   70.9002   -3.1246 O.2     1  UNL1       -0.5170
      4 O          21.7731   71.6258   -3.4864 O.3     1  UNL1       -0.3112
      5 C          20.9700   70.4613   -3.5695 C.3     1  UNL1        0.1811
      6 O          18.9818   71.4773   -4.4575 O.3     1  UNL1       -0.3308
      7 O          17.5068   70.0738   -2.2562 O.3     1  UNL1       -0.3794
      8 O          17.0048   68.4852   -4.4151 O.3     1  UNL1       -0.3779
      9 C          18.6302   69.6300   -3.0155 C.3     1  UNL1        0.1713
     10 C          18.1989   69.2408   -4.4141 C.3     1  UNL1        0.1895
     11 C          19.5226   70.8358   -3.2818 C.3     1  UNL1        0.1764
     12 C          18.0340   70.5956   -5.0814 C.3     1  UNL1        0.2383
     13 H          16.9224   69.3208   -2.0735 H       1  UNL1        0.2105
     14 H          17.1612   67.6326   -3.9799 H       1  UNL1        0.2106
     15 O          16.1308   69.8760   -7.0405 O.2     1  UNL1       -0.2464
     16 O          19.1666   70.4448  -10.4613 O.2     1  UNL1       -0.2670
     17 N          18.2999   70.5476   -6.4915 N.ar    1  UNL1       -0.2551
     18 N          17.6439   70.1600   -8.7422 N.ar    1  UNL1       -0.2743
     19 C          17.2748   70.1727   -7.3911 C.ar    1  UNL1        0.3323
     20 C          19.5653   70.8704   -6.9695 C.ar    1  UNL1        0.0869
     21 C          19.9014   70.8521   -8.2609 C.ar    1  UNL1        0.0795
     22 C          18.8885   70.4713   -9.2664 C.ar    1  UNL1        0.2626
     23 H          16.9462   69.9015   -9.3873 H       1  UNL1        0.1734
     24 O          22.5350   70.9398   -1.1722 O.3     1  UNL1       -0.2703
     25 P          21.6282   71.5664    0.0102 P.3     1  UNL1        0.2208
     26 O          21.1241   70.2612    0.8225 O.co2   1  UNL1       -0.4371
     27 O          20.5231   72.4617   -0.4706 O.2     1  UNL1       -0.5170
     28 O          22.6843   72.2800    1.0003 O.3     1  UNL1       -0.2858
     29 O          24.4241   71.7273    2.5117 O.3     1  UNL1       -0.3258
     30 O          22.0692   74.0082    5.0222 O.3     1  UNL1       -0.3794
     31 O          24.5582   75.0699    4.0602 O.3     1  UNL1       -0.3794
     32 O          20.8319   72.2240    3.1076 O.3     1  UNL1       -0.3775
     33 C          22.6652   73.6357    3.7766 C.3     1  UNL1        0.1715
     34 C          24.1856   73.7004    3.9343 C.3     1  UNL1        0.1694
     35 C          22.2219   72.2194    3.4149 C.3     1  UNL1        0.1967
     36 C          24.8948   73.0620    2.7323 C.3     1  UNL1        0.1761
     37 C          23.0232   71.6599    2.2381 C.3     1  UNL1        0.2704
     38 H          22.3462   74.9068    5.2574 H       1  UNL1        0.2105
     39 H          24.1032   75.4612    4.8225 H       1  UNL1        0.2105
     40 H          20.3356   72.5800    3.8605 H       1  UNL1        0.2106
     41 O          26.8094   71.6326    2.7343 O.3     1  UNL1       -0.3794
     42 C          26.4052   72.9737    2.9401 C.3     1  UNL1        0.1693
     43 H          27.7687   71.5613    2.8630 H       1  UNL1        0.2105
@<TRIPOS>UNITY_ATOM_ATTR
2 1
charge -1
26 1
charge -1
@<TRIPOS>BOND
     1    25    28    1
     2    25    24    1
     3    25    26    1
     4    25    27    2
     5     1     4    1
     6     1    24    1
     7     1     2    1
     8     1     3    2
     9     6    11    1
    10     6    12    1
    11    29    36    1
    12    29    37    1
    13     7     9    1
    14     7    13    1
    15     8    10    1
    16     8    14    1
    17    28    37    1
    18     4     5    1
    19    30    33    1
    20    30    38    1
    21    31    34    1
    22    31    39    1
    23    32    35    1
    24    32    40    1
    25    41    42    1
    26    41    43    1
    27    15    19    2
    28    16    22    2
    29    17    12    1
    30    17    19   ar
    31    17    20   ar
    32    18    19   ar
    33    18    22   ar
    34    18    23    1
    35     9    10    1
    36     9    11    1
    37    10    12    1
    38    11     5    1
    39    33    34    1
    40    33    35    1
    41    34    36    1
    42    35    37    1
    43    36    42    1
    44    20    21   ar
    45    21    22   ar
@<TRIPOS>MOLECULE
*****
 43 45 0 0 0
SMALL
GASTEIGER

@<TRIPOS>ATOM
      1 P          23.5894   72.2710   -3.6133 P.3     1  UNL1        0.2189
      2 O          24.6443   73.4954   -3.6867 O.co2   1  UNL1       -0.4371
      3 O          24.1388   70.9940   -3.0486 O.2     1  UNL1       -0.5170
      4 O          22.9978   72.1774   -5.1164 O.3     1  UNL1       -0.3112
      5 C          21.5947   72.2574   -5.2970 C.3     1  UNL1        0.1811
      6 O          20.4448   70.3511   -6.2011 O.3     1  UNL1       -0.3308
      7 O          20.4739   71.8107   -8.8202 O.3     1  UNL1       -0.3794
      8 O          17.9323   72.2389   -7.9294 O.3     1  UNL1       -0.3779
      9 C          20.3237   72.3296   -7.4998 C.3     1  UNL1        0.1713
     10 C          18.9416   72.0162   -6.9658 C.3     1  UNL1        0.1895
     11 C          21.2157   71.5152   -6.5712 C.3     1  UNL1        0.1764
     12 C          19.0750   70.5510   -6.5868 C.3     1  UNL1        0.2383
     13 H          19.9138   72.3154   -9.4314 H       1  UNL1        0.2105
     14 H          17.8865   73.1852   -8.1371 H       1  UNL1        0.2106
     15 O          16.4050   69.6711   -6.8596 O.2     1  UNL1       -0.2464
     16 O          15.9040   69.1932   -2.3031 O.2     1  UNL1       -0.2670
     17 N          18.2239   70.1896   -5.4885 N.ar    1  UNL1       -0.2551
     18 N          16.1578   69.4337   -4.5906 N.ar    1  UNL1       -0.2743
     19 C          16.8983   69.7613   -5.7335 C.ar    1  UNL1        0.3323
     20 C          18.7053   70.2614   -4.1859 C.ar    1  UNL1        0.0869
     21 C          17.9859   69.9466   -3.1067 C.ar    1  UNL1        0.0795
     22 C          16.5913   69.4898   -3.2755 C.ar    1  UNL1        0.2626
     23 H          15.2315   69.1331   -4.7369 H       1  UNL1        0.1734
     24 O          22.3582   72.9016   -2.7770 O.3     1  UNL1       -0.2703
     25 P          21.3955   72.2519   -1.6526 P.3     1  UNL1        0.2208
     26 O          21.4231   70.6737   -2.0074 O.co2   1  UNL1       -0.4371
     27 O          20.0199   72.8508   -1.5997 O.2     1  UNL1       -0.5170
     28 O          22.2320   72.3753   -0.2778 O.3     1  UNL1       -0.2858
     29 O          23.2196   70.8692    1.2626 O.3     1  UNL1       -0.3258
     30 O          21.3068   73.3782    3.9267 O.3     1  UNL1       -0.3794
     31 O          24.1664   73.4835    3.6830 O.3     1  UNL1       -0.3794
     32 O          20.0243   72.6772    1.4280 O.3     1  UNL1       -0.3775
     33 C          22.0166   73.0449    2.7307 C.3     1  UNL1        0.1715
     34 C          23.3668   72.4439    3.1261 C.3     1  UNL1        0.1694
     35 C          21.1951   72.0390    1.9266 C.3     1  UNL1        0.1967
     36 C          24.0712   71.8189    1.9143 C.3     1  UNL1        0.1761
     37 C          22.0046   71.4413    0.7744 C.3     1  UNL1        0.2704
     38 H          21.8228   74.0169    4.4417 H       1  UNL1        0.2105
     39 H          23.7101   73.8700    4.4469 H       1  UNL1        0.2105
     40 H          19.5205   73.0511    2.1671 H       1  UNL1        0.2106
     41 O          24.9951   69.7586    2.6957 O.3     1  UNL1       -0.3794
     42 C          25.3445   71.0761    2.3132 C.3     1  UNL1        0.1693
     43 H          25.7958   69.2738    2.9519 H       1  UNL1        0.2105
@<TRIPOS>UNITY_ATOM_ATTR
2 1
charge -1
26 1
charge -1
@<TRIPOS>BOND
     1    25    28    1
     2    25    24    1
     3    25    26    1
     4    25    27    2
     5     1     4    1
     6     1    24    1
     7     1     2    1
     8     1     3    2
     9     6    11    1
    10     6    12    1
    11    29    36    1
    12    29    37    1
    13     7     9    1
    14     7    13    1
    15     8    10    1
    16     8    14    1
    17    28    37    1
    18     4     5    1
    19    30    33    1
    20    30    38    1
    21    31    34    1
    22    31    39    1
    23    32    35    1
    24    32    40    1
    25    41    42    1
    26    41    43    1
    27    15    19    2
    28    16    22    2
    29    17    12    1
    30    17    19   ar
    31    17    20   ar
    32    18    19   ar
    33    18    22   ar
    34    18    23    1
    35     9    10    1
    36     9    11    1
    37    10    12    1
    38    11     5    1
    39    33    34    1
    40    33    35    1
    41    34    36    1
    42    35    37    1
    43    36    42    1
    44    20    21   ar
    45    21    22   ar
@<TRIPOS>MOLECULE
*****
 43 45 0 0 0
SMALL
GASTEIGER

@<TRIPOS>ATOM
      1 P          22.1502   73.1428   -4.7116 P.3     1  UNL1        0.2189
      2 O          22.0796   74.7585   -4.7569 O.co2   1  UNL1       -0.4371
      3 O          23.0645   72.5197   -5.7251 O.2     1  UNL1       -0.5170
      4 O          20.6004   72.6840   -4.7874 O.3     1  UNL1       -0.3112
      5 C          19.5953   73.6598   -4.5745 C.3     1  UNL1        0.1811
      6 O          17.6044   72.6441   -5.4569 O.3     1  UNL1       -0.3308
      7 O          17.3052   71.3403   -2.7734 O.3     1  UNL1       -0.3794
      8 O          18.3502   69.3337   -4.2960 O.3     1  UNL1       -0.3779
      9 C          18.4932   71.6295   -3.5085 C.3     1  UNL1        0.1713
     10 C          18.6425   70.6655   -4.6669 C.3     1  UNL1        0.1895
     11 C          18.2897   72.9587   -4.2249 C.3     1  UNL1        0.1764
     12 C          17.6492   71.2240   -5.6717 C.3     1  UNL1        0.2383
     13 H          17.4113   70.4958   -2.3069 H       1  UNL1        0.2105
     14 H          19.0098   69.0239   -3.6559 H       1  UNL1        0.2106
     15 O          15.8847   70.3898   -7.7134 O.2     1  UNL1       -0.2464
     16 O          19.2667   70.2776  -10.8425 O.2     1  UNL1       -0.2670
     17 N          18.0417   70.9698   -7.0291 N.ar    1  UNL1       -0.2551
     18 N          17.5701   70.3348   -9.2698 N.ar    1  UNL1       -0.2743
     19 C          17.0778   70.5537   -7.9769 C.ar    1  UNL1        0.3323
     20 C          19.3694   71.1338   -7.4089 C.ar    1  UNL1        0.0869
     21 C          19.8230   70.9197   -8.6457 C.ar    1  UNL1        0.0795
     22 C          18.8805   70.4828   -9.6959 C.ar    1  UNL1        0.2626
     23 H          16.9167   70.0440   -9.9468 H       1  UNL1        0.1734
     24 O          22.5442   72.8393   -3.1736 O.3     1  UNL1       -0.2703
     25 P          22.7630   71.4427   -2.3896 P.3     1  UNL1        0.2208
     26 O          24.1790   70.9121   -2.9649 O.co2   1  UNL1       -0.4371
     27 O          21.6300   70.4691   -2.5389 O.2     1  UNL1       -0.5170
     28 O          23.0777   71.8741   -0.8665 O.3     1  UNL1       -0.2858
     29 O          24.3438   70.9790    0.9258 O.3     1  UNL1       -0.3258
     30 O          20.8828   71.9240    2.9702 O.3     1  UNL1       -0.3794
     31 O          23.2442   73.5087    3.3712 O.3     1  UNL1       -0.3794
     32 O          20.7275   70.8591    0.2829 O.3     1  UNL1       -0.3775
     33 C          21.9013   72.0994    1.9815 C.3     1  UNL1        0.1715
     34 C          23.2442   72.2527    2.6983 C.3     1  UNL1        0.1694
     35 C          21.9191   70.8801    1.0615 C.3     1  UNL1        0.1967
     36 C          24.4131   72.1777    1.7069 C.3     1  UNL1        0.1761
     37 C          23.1479   70.8780    0.1503 C.3     1  UNL1        0.2704
     38 H          20.8659   72.6950    3.5573 H       1  UNL1        0.2105
     39 H          22.5010   73.5434    3.9938 H       1  UNL1        0.2105
     40 H          19.9569   70.8604    0.8712 H       1  UNL1        0.2106
     41 O          26.2038   70.8292    2.5338 O.3     1  UNL1       -0.3794
     42 C          25.7654   72.1702    2.4165 C.3     1  UNL1        0.1693
     43 H          27.0636   70.8089    2.9833 H       1  UNL1        0.2105
@<TRIPOS>UNITY_ATOM_ATTR
2 1
charge -1
26 1
charge -1
@<TRIPOS>BOND
     1    25    28    1
     2    25    24    1
     3    25    26    1
     4    25    27    2
     5     1     4    1
     6     1    24    1
     7     1     2    1
     8     1     3    2
     9     6    11    1
    10     6    12    1
    11    29    36    1
    12    29    37    1
    13     7     9    1
    14     7    13    1
    15     8    10    1
    16     8    14    1
    17    28    37    1
    18     4     5    1
    19    30    33    1
    20    30    38    1
    21    31    34    1
    22    31    39    1
    23    32    35    1
    24    32    40    1
    25    41    42    1
    26    41    43    1
    27    15    19    2
    28    16    22    2
    29    17    12    1
    30    17    19   ar
    31    17    20   ar
    32    18    19   ar
    33    18    22   ar
    34    18    23    1
    35     9    10    1
    36     9    11    1
    37    10    12    1
    38    11     5    1
    39    33    34    1
    40    33    35    1
    41    34    36    1
    42    35    37    1
    43    36    42    1
    44    20    21   ar
    45    21    22   ar
@<TRIPOS>MOLECULE
*****
 43 45 0 0 0
SMALL
GASTEIGER

@<TRIPOS>ATOM
      1 P          21.4794   72.1144   -2.1425 P.3     1  UNL1        0.2189
      2 O          21.8146   70.8040   -1.2549 O.co2   1  UNL1       -0.4371
      3 O          20.2168   72.8309   -1.7630 O.2     1  UNL1       -0.5170
      4 O          21.5524   71.5796   -3.6678 O.3     1  UNL1       -0.3112
      5 C          21.4639   72.5240   -4.7204 C.3     1  UNL1        0.1811
      6 O          20.5206   70.5892   -5.7883 O.3     1  UNL1       -0.3308
      7 O          20.8704   72.0748   -8.3693 O.3     1  UNL1       -0.3794
      8 O          18.2148   72.4085   -7.8466 O.3     1  UNL1       -0.3779
      9 C          20.5164   72.5753   -7.0811 C.3     1  UNL1        0.1713
     10 C          19.0843   72.2103   -6.7504 C.3     1  UNL1        0.1895
     11 C          21.2954   71.7821   -6.0392 C.3     1  UNL1        0.1764
     12 C          19.2134   70.7468   -6.3637 C.3     1  UNL1        0.2383
     13 H          20.3855   72.5664   -9.0514 H       1  UNL1        0.2105
     14 H          18.1662   73.3547   -8.0539 H       1  UNL1        0.2106
     15 O          16.6517   69.7530   -7.0181 O.2     1  UNL1       -0.2464
     16 O          15.5152   69.2423   -2.5809 O.2     1  UNL1       -0.2670
     17 N          18.2280   70.3462   -5.3994 N.ar    1  UNL1       -0.2551
     18 N          16.0880   69.4993   -4.8082 N.ar    1  UNL1       -0.2743
     19 C          16.9719   69.8616   -5.8327 C.ar    1  UNL1        0.3323
     20 C          18.5116   70.4353   -4.0409 C.ar    1  UNL1        0.0869
     21 C          17.6573   70.0870   -3.0765 C.ar    1  UNL1        0.0795
     22 C          16.3230   69.5708   -3.4443 C.ar    1  UNL1        0.2626
     23 H          15.2066   69.1593   -5.0863 H       1  UNL1        0.1734
     24 O          22.8238   73.0011   -2.0037 O.3     1  UNL1       -0.2703
     25 P          23.1784   74.2474   -1.0372 P.3     1  UNL1        0.2208
     26 O          22.0334   75.3326   -1.3959 O.co2   1  UNL1       -0.4371
     27 O          24.5828   74.7581   -1.1818 O.2     1  UNL1       -0.5170
     28 O          22.8029   73.7338    0.4461 O.3     1  UNL1       -0.2858
     29 O          24.8510   73.1874    1.5058 O.3     1  UNL1       -0.3258
     30 O          22.2427   72.1369    4.5297 O.3     1  UNL1       -0.3794
     31 O          23.8507   74.5009    4.8017 O.3     1  UNL1       -0.3794
     32 O          21.5455   71.6036    1.7713 O.3     1  UNL1       -0.3775
     33 C          22.7101   72.9134    3.4234 C.3     1  UNL1        0.1715
     34 C          24.0669   73.5132    3.7977 C.3     1  UNL1        0.1694
     35 C          22.8412   72.0094    2.1990 C.3     1  UNL1        0.1967
     36 C          24.7536   74.1360    2.5746 C.3     1  UNL1        0.1761
     37 C          23.5816   72.7086    1.0575 C.3     1  UNL1        0.2704
     38 H          22.1569   72.7050    5.3103 H       1  UNL1        0.2105
     39 H          23.4162   74.0948    5.5682 H       1  UNL1        0.2105
     40 H          21.0872   71.1621    2.5027 H       1  UNL1        0.2106
     41 O          26.6615   73.8419    3.9826 O.3     1  UNL1       -0.3794
     42 C          26.1739   74.5995    2.8905 C.3     1  UNL1        0.1693
     43 H          27.5648   74.1259    4.1947 H       1  UNL1        0.2105
@<TRIPOS>UNITY_ATOM_ATTR
2 1
charge -1
26 1
charge -1
@<TRIPOS>BOND
     1    25    28    1
     2    25    24    1
     3    25    26    1
     4    25    27    2
     5     1     4    1
     6     1    24    1
     7     1     2    1
     8     1     3    2
     9     6    11    1
    10     6    12    1
    11    29    36    1
    12    29    37    1
    13     7     9    1
    14     7    13    1
    15     8    10    1
    16     8    14    1
    17    28    37    1
    18     4     5    1
    19    30    33    1
    20    30    38    1
    21    31    34    1
    22    31    39    1
    23    32    35    1
    24    32    40    1
    25    41    42    1
    26    41    43    1
    27    15    19    2
    28    16    22    2
    29    17    12    1
    30    17    19   ar
    31    17    20   ar
    32    18    19   ar
    33    18    22   ar
    34    18    23    1
    35     9    10    1
    36     9    11    1
    37    10    12    1
    38    11     5    1
    39    33    34    1
    40    33    35    1
    41    34    36    1
    42    35    37    1
    43    36    42    1
    44    20    21   ar
    45    21    22   ar
@<TRIPOS>MOLECULE
*****
 43 45 0 0 0
SMALL
GASTEIGER

@<TRIPOS>ATOM
      1 P          22.9717   71.6346   -2.2521 P.3     1  UNL1        0.2189
      2 O          24.0842   70.8737   -3.1471 O.co2   1  UNL1       -0.4371
      3 O          22.5153   70.8840   -1.0357 O.2     1  UNL1       -0.5170
      4 O          21.8146   72.0195   -3.3155 O.3     1  UNL1       -0.3112
      5 C          21.0089   70.9804   -3.8436 C.3     1  UNL1        0.1811
      6 O          18.9545   71.8299   -4.7556 O.3     1  UNL1       -0.3308
      7 O          17.5914   70.4809   -2.4506 O.3     1  UNL1       -0.3794
      8 O          17.1498   68.7409   -4.5033 O.3     1  UNL1       -0.3779
      9 C          18.7274   70.0554   -3.2015 C.3     1  UNL1        0.1713
     10 C          18.2993   69.5601   -4.5672 C.3     1  UNL1        0.1895
     11 C          19.5467   71.2907   -3.5536 C.3     1  UNL1        0.1764
     12 C          18.0493   70.8615   -5.3102 C.3     1  UNL1        0.2383
     13 H          17.0529   69.7090   -2.2138 H       1  UNL1        0.2105
     14 H          17.3598   67.9258   -4.0215 H       1  UNL1        0.2106
     15 O          16.0952   70.1499   -7.2215 O.2     1  UNL1       -0.2464
     16 O          19.1174   70.4409  -10.6890 O.2     1  UNL1       -0.2670
     17 N          18.2979   70.7442   -6.7193 N.ar    1  UNL1       -0.2551
     18 N          17.6016   70.2956   -8.9465 N.ar    1  UNL1       -0.2743
     19 C          17.2477   70.3799   -7.5939 C.ar    1  UNL1        0.3323
     20 C          19.5714   70.9896   -7.2211 C.ar    1  UNL1        0.0869
     21 C          19.8929   70.9035   -8.5136 C.ar    1  UNL1        0.0795
     22 C          18.8533   70.5285   -9.4938 C.ar    1  UNL1        0.2626
     23 H          16.8862   70.0430   -9.5743 H       1  UNL1        0.1734
     24 O          23.6682   73.0598   -1.9413 O.3     1  UNL1       -0.2703
     25 P          23.2566   74.2417   -0.9182 P.3     1  UNL1        0.2208
     26 O          21.7147   74.5452   -1.3027 O.co2   1  UNL1       -0.4371
     27 O          24.1560   75.4426   -0.9714 O.2     1  UNL1       -0.5170
     28 O          23.1831   73.5247    0.5260 O.3     1  UNL1       -0.2858
     29 O          22.2946   75.2174    1.9267 O.3     1  UNL1       -0.3258
     30 O          22.4983   72.1340    4.6657 O.3     1  UNL1       -0.3794
     31 O          19.9412   72.9739    3.6636 O.3     1  UNL1       -0.3794
     32 O          24.6004   72.4631    2.7029 O.3     1  UNL1       -0.3775
     33 C          22.3022   72.7204    3.3761 C.3     1  UNL1        0.1715
     34 C          21.1433   73.7147    3.4726 C.3     1  UNL1        0.1694
     35 C          23.5858   73.4305    2.9501 C.3     1  UNL1        0.1967
     36 C          21.0450   74.5755    2.2059 C.3     1  UNL1        0.1761
     37 C          23.3664   74.2977    1.7092 C.3     1  UNL1        0.2704
     38 H          21.6871   71.6811    4.9418 H       1  UNL1        0.2105
     39 H          20.0166   72.4343    4.4664 H       1  UNL1        0.2105
     40 H          24.7300   71.9207    3.4960 H       1  UNL1        0.2106
     41 O          19.7627   75.9051    3.7214 O.3     1  UNL1       -0.3794
     42 C          19.9979   75.6785    2.3438 C.3     1  UNL1        0.1693
     43 H          19.0984   76.6050    3.8245 H       1  UNL1        0.2105
@<TRIPOS>UNITY_ATOM_ATTR
2 1
charge -1
26 1
charge -1
@<TRIPOS>BOND
     1    25    28    1
     2    25    24    1
     3    25    26    1
     4    25    27    2
     5     1     4    1
     6     1    24    1
     7     1     2    1
     8     1     3    2
     9     6    11    1
    10     6    12    1
    11    29    36    1
    12    29    37    1
    13     7     9    1
    14     7    13    1
    15     8    10    1
    16     8    14    1
    17    28    37    1
    18     4     5    1
    19    30    33    1
    20    30    38    1
    21    31    34    1
    22    31    39    1
    23    32    35    1
    24    32    40    1
    25    41    42    1
    26    41    43    1
    27    15    19    2
    28    16    22    2
    29    17    12    1
    30    17    19   ar
    31    17    20   ar
    32    18    19   ar
    33    18    22   ar
    34    18    23    1
    35     9    10    1
    36     9    11    1
    37    10    12    1
    38    11     5    1
    39    33    34    1
    40    33    35    1
    41    34    36    1
    42    35    37    1
    43    36    42    1
    44    20    21   ar
    45    21    22   ar
@<TRIPOS>MOLECULE
*****
 43 45 0 0 0
SMALL
GASTEIGER

@<TRIPOS>ATOM
      1 P          22.7395   72.5665   -3.8255 P.3     1  UNL1        0.2189
      2 O          22.2073   71.0597   -3.5731 O.co2   1  UNL1       -0.4371
      3 O          24.0986   72.6616   -4.4541 O.2     1  UNL1       -0.5170
      4 O          22.5812   73.2811   -2.3825 O.3     1  UNL1       -0.3112
      5 C          21.6341   74.3262   -2.2459 C.3     1  UNL1        0.1811
      6 O          20.9174   72.6334   -0.6985 O.3     1  UNL1       -0.3308
      7 O          18.8160   74.5860    0.1747 O.3     1  UNL1       -0.3794
      8 O          20.6944   74.8168    2.1381 O.3     1  UNL1       -0.3779
      9 C          20.1608   74.8306   -0.2339 C.3     1  UNL1        0.1713
     10 C          21.1258   74.4109    0.8552 C.3     1  UNL1        0.1895
     11 C          20.4971   73.8513   -1.3516 C.3     1  UNL1        0.1764
     12 C          21.1438   72.9002    0.6952 C.3     1  UNL1        0.2383
     13 H          18.5782   75.1998    0.8878 H       1  UNL1        0.2105
     14 H          20.7003   75.7853    2.1899 H       1  UNL1        0.2106
     15 O          21.5842   70.1347    1.0639 O.2     1  UNL1       -0.2464
     16 O          26.0053   70.8014    2.1820 O.2     1  UNL1       -0.2670
     17 N          22.4004   72.3234    1.0822 N.ar    1  UNL1       -0.2551
     18 N          23.7852   70.4689    1.6202 N.ar    1  UNL1       -0.2743
     19 C          22.5154   70.9227    1.2413 C.ar    1  UNL1        0.3323
     20 C          23.5019   73.1439    1.2995 C.ar    1  UNL1        0.0869
     21 C          24.7057   72.6956    1.6617 C.ar    1  UNL1        0.0795
     22 C          24.9105   71.2447    1.8493 C.ar    1  UNL1        0.2626
     23 H          23.8890   69.4966    1.7373 H       1  UNL1        0.1734
     24 O          21.5490   73.2320   -4.6931 O.3     1  UNL1       -0.2703
     25 P          21.1897   73.1184   -6.2650 P.3     1  UNL1        0.2208
     26 O          22.2590   72.0348   -6.8126 O.co2   1  UNL1       -0.4371
     27 O          21.2067   74.4293   -6.9964 O.2     1  UNL1       -0.5170
     28 O          19.7719   72.3482   -6.3054 O.3     1  UNL1       -0.2858
     29 O          18.9273   70.2560   -5.5801 O.3     1  UNL1       -0.3258
     30 O          17.4039   70.2880   -9.4180 O.3     1  UNL1       -0.3794
     31 O          15.6372   70.6797   -7.1878 O.3     1  UNL1       -0.3794
     32 O          20.0536   71.3359   -8.9075 O.3     1  UNL1       -0.3775
     33 C          17.8095   70.8618   -8.1723 C.3     1  UNL1        0.1715
     34 C          16.9802   70.2220   -7.0570 C.3     1  UNL1        0.1694
     35 C          19.2975   70.5908   -7.9589 C.3     1  UNL1        0.1967
     36 C          17.5368   70.5865   -5.6741 C.3     1  UNL1        0.1761
     37 C          19.7374   70.9423   -6.5365 C.3     1  UNL1        0.2704
     38 H          16.4600   70.4570   -9.5598 H       1  UNL1        0.2105
     39 H          15.2979   70.4436   -8.0655 H       1  UNL1        0.2105
     40 H          19.7659   71.1041   -9.8038 H       1  UNL1        0.2106
     41 O          16.0459   68.8003   -5.1305 O.3     1  UNL1       -0.3794
     42 C          16.8226   69.8338   -4.5536 C.3     1  UNL1        0.1693
     43 H          15.5859   68.3124   -4.4290 H       1  UNL1        0.2105
@<TRIPOS>UNITY_ATOM_ATTR
2 1
charge -1
26 1
charge -1
@<TRIPOS>BOND
     1    25    28    1
     2    25    24    1
     3    25    26    1
     4    25    27    2
     5     1     4    1
     6     1    24    1
     7     1     2    1
     8     1     3    2
     9     6    11    1
    10     6    12    1
    11    29    36    1
    12    29    37    1
    13     7     9    1
    14     7    13    1
    15     8    10    1
    16     8    14    1
    17    28    37    1
    18     4     5    1
    19    30    33    1
    20    30    38    1
    21    31    34    1
    22    31    39    1
    23    32    35    1
    24    32    40    1
    25    41    42    1
    26    41    43    1
    27    15    19    2
    28    16    22    2
    29    17    12    1
    30    17    19   ar
    31    17    20   ar
    32    18    19   ar
    33    18    22   ar
    34    18    23    1
    35     9    10    1
    36     9    11    1
    37    10    12    1
    38    11     5    1
    39    33    34    1
    40    33    35    1
    41    34    36    1
    42    35    37    1
    43    36    42    1
    44    20    21   ar
    45    21    22   ar
@<TRIPOS>MOLECULE
*****
 43 45 0 0 0
SMALL
GASTEIGER

@<TRIPOS>ATOM
      1 P          20.5560   71.8646   -1.2522 P.3     1  UNL1        0.2189
      2 O          21.9779   72.6056   -1.0364 O.co2   1  UNL1       -0.4371
      3 O          20.4813   70.4668   -0.7119 O.2     1  UNL1       -0.5170
      4 O          20.2731   72.0211   -2.8376 O.3     1  UNL1       -0.3112
      5 C          19.6006   70.9715   -3.5112 C.3     1  UNL1        0.1811
      6 O          17.8233   71.8699   -4.8558 O.3     1  UNL1       -0.3308
      7 O          15.9488   70.4714   -2.9793 O.3     1  UNL1       -0.3794
      8 O          15.9967   68.7957   -5.1302 O.3     1  UNL1       -0.3779
      9 C          17.2281   70.0545   -3.4538 C.3     1  UNL1        0.1713
     10 C          17.1324   69.6033   -4.8963 C.3     1  UNL1        0.1895
     11 C          18.1127   71.2900   -3.5649 C.3     1  UNL1        0.1764
     12 C          17.0704   70.9281   -5.6374 C.3     1  UNL1        0.2383
     13 H          15.3663   69.6992   -2.8998 H       1  UNL1        0.2105
     14 H          16.0836   67.9648   -4.6374 H       1  UNL1        0.2106
     15 O          15.6217   70.2840   -7.9750 O.2     1  UNL1       -0.2464
     16 O          19.3763   70.6492  -10.6228 O.2     1  UNL1       -0.2670
     17 N          17.6442   70.8481   -6.9510 N.ar    1  UNL1       -0.2551
     18 N          17.4923   70.4665   -9.2915 N.ar    1  UNL1       -0.2743
     19 C          16.8295   70.5159   -8.0585 C.ar    1  UNL1        0.3323
     20 C          19.0003   71.0980   -7.1313 C.ar    1  UNL1        0.0869
     21 C          19.6173   71.0456   -8.3136 C.ar    1  UNL1        0.0795
     22 C          18.8379   70.7055   -9.5215 C.ar    1  UNL1        0.2626
     23 H          16.9450   70.2367  -10.0772 H       1  UNL1        0.1734
     24 O          19.5035   72.8983   -0.5916 O.3     1  UNL1       -0.2703
     25 P          19.7059   74.3932   -0.0107 P.3     1  UNL1        0.2208
     26 O          18.2204   74.8048    0.4805 O.co2   1  UNL1       -0.4371
     27 O          20.3243   75.3535   -0.9850 O.2     1  UNL1       -0.5170
     28 O          20.5448   74.1912    1.3533 O.3     1  UNL1       -0.2858
     29 O          21.3971   72.1373    2.1729 O.3     1  UNL1       -0.3258
     30 O          20.7664   74.0710    5.7665 O.3     1  UNL1       -0.3794
     31 O          23.4486   73.6887    4.8136 O.3     1  UNL1       -0.3794
     32 O          18.8754   74.3982    3.5994 O.3     1  UNL1       -0.3775
     33 C          21.1133   73.9739    4.3825 C.3     1  UNL1        0.1715
     34 C          22.3136   73.0341    4.2536 C.3     1  UNL1        0.1694
     35 C          19.9170   73.4279    3.6052 C.3     1  UNL1        0.1967
     36 C          22.5769   72.6697    2.7863 C.3     1  UNL1        0.1761
     37 C          20.2986   73.0512    2.1725 C.3     1  UNL1        0.2704
     38 H          21.5216   74.4175    6.2657 H       1  UNL1        0.2105
     39 H          23.2691   73.9138    5.7401 H       1  UNL1        0.2105
     40 H          18.6427   74.6280    4.5121 H       1  UNL1        0.2106
     41 O          24.9187   72.2665    2.5367 O.3     1  UNL1       -0.3794
     42 C          23.6687   71.6111    2.6469 C.3     1  UNL1        0.1693
     43 H          25.6232   71.6050    2.4476 H       1  UNL1        0.2105
@<TRIPOS>UNITY_ATOM_ATTR
2 1
charge -1
26 1
charge -1
@<TRIPOS>BOND
     1    25    28    1
     2    25    24    1
     3    25    26    1
     4    25    27    2
     5     1     4    1
     6     1    24    1
     7     1     2    1
     8     1     3    2
     9     6    11    1
    10     6    12    1
    11    29    36    1
    12    29    37    1
    13     7     9    1
    14     7    13    1
    15     8    10    1
    16     8    14    1
    17    28    37    1
    18     4     5    1
    19    30    33    1
    20    30    38    1
    21    31    34    1
    22    31    39    1
    23    32    35    1
    24    32    40    1
    25    41    42    1
    26    41    43    1
    27    15    19    2
    28    16    22    2
    29    17    12    1
    30    17    19   ar
    31    17    20   ar
    32    18    19   ar
    33    18    22   ar
    34    18    23    1
    35     9    10    1
    36     9    11    1
    37    10    12    1
    38    11     5    1
    39    33    34    1
    40    33    35    1
    41    34    36    1
    42    35    37    1
    43    36    42    1
    44    20    21   ar
    45    21    22   ar
@<TRIPOS>MOLECULE
*****
 43 45 0 0 0
SMALL
GASTEIGER

@<TRIPOS>ATOM
      1 P          20.4441   71.2217   -1.3150 P.3     1  UNL1        0.2189
      2 O          20.7713   70.5435    0.1169 O.co2   1  UNL1       -0.4371
      3 O          19.9996   72.6535   -1.2513 O.2     1  UNL1       -0.5170
      4 O          19.4025   70.1926   -2.0033 O.3     1  UNL1       -0.3112
      5 C          19.0934   70.3605   -3.3760 C.3     1  UNL1        0.1811
      6 O          17.4246   71.4198   -4.7423 O.3     1  UNL1       -0.3308
      7 O          15.4161   69.7931   -3.2223 O.3     1  UNL1       -0.3794
      8 O          15.6639   68.4028   -5.5552 O.3     1  UNL1       -0.3779
      9 C          16.7354   69.4410   -3.6354 C.3     1  UNL1        0.1713
     10 C          16.7664   69.1757   -5.1261 C.3     1  UNL1        0.1895
     11 C          17.6116   70.6816   -3.5149 C.3     1  UNL1        0.1764
     12 C          16.7511   70.5834   -5.6971 C.3     1  UNL1        0.2383
     13 H          14.8381   69.0164   -3.2903 H       1  UNL1        0.2105
     14 H          15.7190   67.5164   -5.1653 H       1  UNL1        0.2106
     15 O          15.7197   71.8808   -7.9843 O.2     1  UNL1       -0.2464
     16 O          19.4581   70.8549  -10.4771 O.2     1  UNL1       -0.2670
     17 N          17.4338   70.6709   -6.9571 N.ar    1  UNL1       -0.2551
     18 N          17.5821   71.3691   -9.2236 N.ar    1  UNL1       -0.2743
     19 C          16.8280   71.3441   -8.0435 C.ar    1  UNL1        0.3323
     20 C          18.6901   70.0934   -7.1061 C.ar    1  UNL1        0.0869
     21 C          19.3956   70.1249   -8.2386 C.ar    1  UNL1        0.0795
     22 C          18.8341   70.8087   -9.4214 C.ar    1  UNL1        0.2626
     23 H          17.1798   71.8323   -9.9939 H       1  UNL1        0.1734
     24 O          21.8045   70.9763   -2.1528 O.3     1  UNL1       -0.2703
     25 P          23.2951   71.5696   -1.9543 P.3     1  UNL1        0.2208
     26 O          24.1787   70.7112   -3.0031 O.co2   1  UNL1       -0.4371
     27 O          23.7935   71.5206   -0.5390 O.2     1  UNL1       -0.5170
     28 O          23.2330   73.0515   -2.5907 O.3     1  UNL1       -0.2858
     29 O          23.7883   73.1299   -4.8933 O.3     1  UNL1       -0.3258
     30 O          23.9224   77.1687   -4.0444 O.3     1  UNL1       -0.3794
     31 O          21.7482   76.1179   -5.5990 O.3     1  UNL1       -0.3794
     32 O          24.9052   75.2532   -2.1094 O.3     1  UNL1       -0.3775
     33 C          23.4363   75.8286   -3.9295 C.3     1  UNL1        0.1715
     34 C          22.9319   75.3820   -5.3031 C.3     1  UNL1        0.1694
     35 C          24.5722   74.9247   -3.4540 C.3     1  UNL1        0.1967
     36 C          22.6433   73.8749   -5.3242 C.3     1  UNL1        0.1761
     37 C          24.1994   73.4450   -3.5615 C.3     1  UNL1        0.2704
     38 H          23.2059   77.7479   -4.3456 H       1  UNL1        0.2105
     39 H          21.9439   77.0680   -5.5821 H       1  UNL1        0.2105
     40 H          25.1396   76.1923   -2.0547 H       1  UNL1        0.2106
     41 O          23.0397   72.2081   -6.9897 O.3     1  UNL1       -0.3794
     42 C          22.2902   73.3797   -6.7250 C.3     1  UNL1        0.1693
     43 H          22.8250   71.8815   -7.8779 H       1  UNL1        0.2105
@<TRIPOS>UNITY_ATOM_ATTR
2 1
charge -1
26 1
charge -1
@<TRIPOS>BOND
     1    25    28    1
     2    25    24    1
     3    25    26    1
     4    25    27    2
     5     1     4    1
     6     1    24    1
     7     1     2    1
     8     1     3    2
     9     6    11    1
    10     6    12    1
    11    29    36    1
    12    29    37    1
    13     7     9    1
    14     7    13    1
    15     8    10    1
    16     8    14    1
    17    28    37    1
    18     4     5    1
    19    30    33    1
    20    30    38    1
    21    31    34    1
    22    31    39    1
    23    32    35    1
    24    32    40    1
    25    41    42    1
    26    41    43    1
    27    15    19    2
    28    16    22    2
    29    17    12    1
    30    17    19   ar
    31    17    20   ar
    32    18    19   ar
    33    18    22   ar
    34    18    23    1
    35     9    10    1
    36     9    11    1
    37    10    12    1
    38    11     5    1
    39    33    34    1
    40    33    35    1
    41    34    36    1
    42    35    37    1
    43    36    42    1
    44    20    21   ar
    45    21    22   ar
@<TRIPOS>MOLECULE
*****
 43 45 0 0 0
SMALL
GASTEIGER

@<TRIPOS>ATOM
      1 P          21.4950   73.3245   -2.8268 P.3     1  UNL1        0.2189
      2 O          22.6524   72.2007   -2.9483 O.co2   1  UNL1       -0.4371
      3 O          21.9270   74.7193   -3.1725 O.2     1  UNL1       -0.5170
      4 O          20.9106   73.1202   -1.3319 O.3     1  UNL1       -0.3112
      5 C          20.3155   74.2293   -0.6812 C.3     1  UNL1        0.1811
      6 O          20.2909   72.5274    1.0149 O.3     1  UNL1       -0.3308
      7 O          18.7508   74.4810    2.6889 O.3     1  UNL1       -0.3794
      8 O          21.2739   74.6897    3.7021 O.3     1  UNL1       -0.3779
      9 C          19.8082   74.7237    1.7625 C.3     1  UNL1        0.1713
     10 C          21.1342   74.2921    2.3533 C.3     1  UNL1        0.1895
     11 C          19.6463   73.7518    0.6004 C.3     1  UNL1        0.1764
     12 C          21.0746   72.7826    2.1920 C.3     1  UNL1        0.2383
     13 H          18.8328   75.0903    3.4399 H       1  UNL1        0.2105
     14 H          21.3071   75.6578    3.7521 H       1  UNL1        0.2106
     15 O          21.5438   70.2311    1.0750 O.2     1  UNL1       -0.2464
     16 O          26.1051   70.6421    1.5910 O.2     1  UNL1       -0.2670
     17 N          22.3749   72.1981    2.0221 N.ar    1  UNL1       -0.2551
     18 N          23.8146   70.4379    1.3327 N.ar    1  UNL1       -0.2743
     19 C          22.5013   70.9102    1.4515 C.ar    1  UNL1        0.3323
     20 C          23.5076   72.9005    2.4191 C.ar    1  UNL1        0.0869
     21 C          24.7529   72.4355    2.3002 C.ar    1  UNL1        0.0795
     22 C          24.9723   71.0976    1.7137 C.ar    1  UNL1        0.2626
     23 H          23.9271   69.5426    0.9382 H       1  UNL1        0.1734
     24 O          20.3158   72.7343   -3.7617 O.3     1  UNL1       -0.2703
     25 P          19.4396   71.3816   -3.6380 P.3     1  UNL1        0.2208
     26 O          18.1897   71.8322   -2.7148 O.co2   1  UNL1       -0.4371
     27 O          20.2027   70.2000   -3.1133 O.2     1  UNL1       -0.5170
     28 O          18.8057   71.1697   -5.1071 O.3     1  UNL1       -0.2858
     29 O          19.3785   71.5790   -7.3700 O.3     1  UNL1       -0.3258
     30 O          15.6402   73.3320   -7.3081 O.3     1  UNL1       -0.3794
     31 O          16.0130   70.8351   -8.6774 O.3     1  UNL1       -0.3794
     32 O          17.3964   73.5949   -5.0220 O.3     1  UNL1       -0.3775
     33 C          16.6331   72.3674   -6.9487 C.3     1  UNL1        0.1715
     34 C          17.0886   71.6509   -8.2215 C.3     1  UNL1        0.1694
     35 C          17.8079   73.0838   -6.2853 C.3     1  UNL1        0.1967
     36 C          18.3348   70.7946   -7.9593 C.3     1  UNL1        0.1761
     37 C          19.0121   72.1559   -6.1151 C.3     1  UNL1        0.2704
     38 H          14.8913   72.8835   -7.7294 H       1  UNL1        0.2105
     39 H          15.2322   71.3879   -8.8387 H       1  UNL1        0.2105
     40 H          16.6337   74.1810   -5.1433 H       1  UNL1        0.2106
     41 O          19.8848   69.2403   -8.9031 O.3     1  UNL1       -0.3794
     42 C          18.8989   70.1966   -9.2463 C.3     1  UNL1        0.1693
     43 H          20.2525   68.8511   -9.7125 H       1  UNL1        0.2105
@<TRIPOS>UNITY_ATOM_ATTR
2 1
charge -1
26 1
charge -1
@<TRIPOS>BOND
     1    25    28    1
     2    25    24    1
     3    25    26    1
     4    25    27    2
     5     1     4    1
     6     1    24    1
     7     1     2    1
     8     1     3    2
     9     6    11    1
    10     6    12    1
    11    29    36    1
    12    29    37    1
    13     7     9    1
    14     7    13    1
    15     8    10    1
    16     8    14    1
    17    28    37    1
    18     4     5    1
    19    30    33    1
    20    30    38    1
    21    31    34    1
    22    31    39    1
    23    32    35    1
    24    32    40    1
    25    41    42    1
    26    41    43    1
    27    15    19    2
    28    16    22    2
    29    17    12    1
    30    17    19   ar
    31    17    20   ar
    32    18    19   ar
    33    18    22   ar
    34    18    23    1
    35     9    10    1
    36     9    11    1
    37    10    12    1
    38    11     5    1
    39    33    34    1
    40    33    35    1
    41    34    36    1
    42    35    37    1
    43    36    42    1
    44    20    21   ar
    45    21    22   ar
@<TRIPOS>MOLECULE
*****
 43 45 0 0 0
SMALL
GASTEIGER

@<TRIPOS>ATOM
      1 P          20.7932   73.0195   -0.9698 P.3     1  UNL1        0.2189
      2 O          19.7263   72.6887    0.2005 O.co2   1  UNL1       -0.4371
      3 O          20.8785   74.4660   -1.3593 O.2     1  UNL1       -0.5170
      4 O          20.3975   71.9942   -2.1573 O.3     1  UNL1       -0.3112
      5 C          20.2569   72.5041   -3.4719 C.3     1  UNL1        0.1811
      6 O          20.6802   70.8719   -5.1838 O.3     1  UNL1       -0.3308
      7 O          23.2338   72.3548   -5.7044 O.3     1  UNL1       -0.3794
      8 O          21.6124   73.2407   -7.7102 O.3     1  UNL1       -0.3779
      9 C          21.9543   72.8645   -5.3326 C.3     1  UNL1        0.1713
     10 C          21.0037   72.8091   -6.5102 C.3     1  UNL1        0.1895
     11 C          21.3185   71.8752   -4.3638 C.3     1  UNL1        0.1764
     12 C          20.6270   71.3376   -6.5421 C.3     1  UNL1        0.2383
     13 H          23.6594   72.9699   -6.3228 H       1  UNL1        0.2105
     14 H          21.8331   74.1826   -7.6403 H       1  UNL1        0.2106
     15 O          20.0135   69.6066   -8.6881 O.2     1  UNL1       -0.2464
     16 O          15.5178   70.5896   -8.4357 O.2     1  UNL1       -0.2670
     17 N          19.3045   71.1218   -7.0576 N.ar    1  UNL1       -0.2551
     18 N          17.7754   70.0974   -8.5606 N.ar    1  UNL1       -0.2743
     19 C          19.1044   70.2324   -8.1389 C.ar    1  UNL1        0.3323
     20 C          18.2229   71.7881   -6.4917 C.ar    1  UNL1        0.0869
     21 C          16.9619   71.6493   -6.9063 C.ar    1  UNL1        0.0795
     22 C          16.6667   70.7387   -8.0313 C.ar    1  UNL1        0.2626
     23 H          17.6120   69.4832   -9.3128 H       1  UNL1        0.1734
     24 O          22.1689   72.3955   -0.3944 O.3     1  UNL1       -0.2703
     25 P          22.4333   71.2718    0.7371 P.3     1  UNL1        0.2208
     26 O          23.9564   70.8077    0.4504 O.co2   1  UNL1       -0.4371
     27 O          21.4341   70.1513    0.7369 O.2     1  UNL1       -0.5170
     28 O          22.5125   72.0972    2.1218 O.3     1  UNL1       -0.2858
     29 O          21.6382   74.1702    2.8667 O.3     1  UNL1       -0.3258
     30 O          25.4584   74.4747    4.4043 O.3     1  UNL1       -0.3794
     31 O          23.2486   74.0097    6.1787 O.3     1  UNL1       -0.3794
     32 O          25.0400   73.2742    1.8036 O.3     1  UNL1       -0.3775
     33 C          24.2583   73.7978    4.0208 C.3     1  UNL1        0.1715
     34 C          23.0956   74.3956    4.8156 C.3     1  UNL1        0.1694
     35 C          24.0369   73.9852    2.5211 C.3     1  UNL1        0.1967
     36 C          21.7452   73.9107    4.2713 C.3     1  UNL1        0.1761
     37 C          22.6454   73.5159    2.0926 C.3     1  UNL1        0.2704
     38 H          25.6050   74.3592    5.3554 H       1  UNL1        0.2105
     39 H          24.1054   74.3215    6.5101 H       1  UNL1        0.2105
     40 H          25.9161   73.5806    2.0836 H       1  UNL1        0.2106
     41 O          20.2517   73.9185    6.1363 O.3     1  UNL1       -0.3794
     42 C          20.5703   74.6154    4.9459 C.3     1  UNL1        0.1693
     43 H          19.5057   74.3559    6.5766 H       1  UNL1        0.2105
@<TRIPOS>UNITY_ATOM_ATTR
2 1
charge -1
26 1
charge -1
@<TRIPOS>BOND
     1    25    28    1
     2    25    24    1
     3    25    26    1
     4    25    27    2
     5     1     4    1
     6     1    24    1
     7     1     2    1
     8     1     3    2
     9     6    11    1
    10     6    12    1
    11    29    36    1
    12    29    37    1
    13     7     9    1
    14     7    13    1
    15     8    10    1
    16     8    14    1
    17    28    37    1
    18     4     5    1
    19    30    33    1
    20    30    38    1
    21    31    34    1
    22    31    39    1
    23    32    35    1
    24    32    40    1
    25    41    42    1
    26    41    43    1
    27    15    19    2
    28    16    22    2
    29    17    12    1
    30    17    19   ar
    31    17    20   ar
    32    18    19   ar
    33    18    22   ar
    34    18    23    1
    35     9    10    1
    36     9    11    1
    37    10    12    1
    38    11     5    1
    39    33    34    1
    40    33    35    1
    41    34    36    1
    42    35    37    1
    43    36    42    1
    44    20    21   ar
    45    21    22   ar
@<TRIPOS>MOLECULE
*****
 43 45 0 0 0
SMALL
GASTEIGER

@<TRIPOS>ATOM
      1 P          23.2440   72.0880   -2.8744 P.3     1  UNL1        0.2189
      2 O          24.2258   70.8022   -2.8810 O.co2   1  UNL1       -0.4371
      3 O          23.9377   73.4156   -2.9616 O.2     1  UNL1       -0.5170
      4 O          22.3186   71.8634   -1.5663 O.3     1  UNL1       -0.3112
      5 C          22.7515   70.9402   -0.5823 C.3     1  UNL1        0.1811
      6 O          22.8923   70.9233    1.8164 O.3     1  UNL1       -0.3308
      7 O          20.4884   72.7152    1.7833 O.3     1  UNL1       -0.3794
      8 O          22.5310   74.4688    2.2183 O.3     1  UNL1       -0.3779
      9 C          21.5918   72.6692    0.8802 C.3     1  UNL1        0.1713
     10 C          22.8227   73.2739    1.5227 C.3     1  UNL1        0.1895
     11 C          22.0028   71.2113    0.7154 C.3     1  UNL1        0.1764
     12 C          23.2778   72.1563    2.4457 C.3     1  UNL1        0.2383
     13 H          20.2079   73.6365    1.9042 H       1  UNL1        0.2105
     14 H          22.2462   75.1488    1.5880 H       1  UNL1        0.2106
     15 O          24.9390   69.9046    2.0608 O.2     1  UNL1       -0.2464
     16 O          28.7195   72.2643    3.2360 O.2     1  UNL1       -0.2670
     17 N          24.6998   72.1542    2.6435 N.ar    1  UNL1       -0.2551
     18 N          26.8201   71.0814    2.6461 N.ar    1  UNL1       -0.2743
     19 C          25.4416   70.9701    2.4238 C.ar    1  UNL1        0.3323
     20 C          25.3446   73.3171    3.0505 C.ar    1  UNL1        0.0869
     21 C          26.6597   73.4063    3.2594 C.ar    1  UNL1        0.0795
     22 C          27.5073   72.2144    3.0522 C.ar    1  UNL1        0.2626
     23 H          27.3571   70.2691    2.4997 H       1  UNL1        0.1734
     24 O          22.2300   71.7774   -4.0944 O.3     1  UNL1       -0.2703
     25 P          21.8137   72.6636   -5.3805 P.3     1  UNL1        0.2208
     26 O          23.0074   72.3733   -6.4333 O.co2   1  UNL1       -0.4371
     27 O          21.5928   74.1179   -5.0803 O.2     1  UNL1       -0.5170
     28 O          20.5303   71.9062   -6.0004 O.3     1  UNL1       -0.2858
     29 O          19.6730   71.6997   -8.2002 O.3     1  UNL1       -0.3258
     30 O          16.1264   72.2536   -6.1592 O.3     1  UNL1       -0.3794
     31 O          16.7690   69.6579   -7.2069 O.3     1  UNL1       -0.3794
     32 O          18.4902   73.7282   -5.3733 O.3     1  UNL1       -0.3775
     33 C          17.4625   71.7784   -6.3446 C.3     1  UNL1        0.1715
     34 C          17.4756   70.8448   -7.5566 C.3     1  UNL1        0.1694
     35 C          18.3891   72.9709   -6.5744 C.3     1  UNL1        0.1967
     36 C          18.9115   70.5067   -7.9799 C.3     1  UNL1        0.1761
     37 C          19.7770   72.5263   -7.0393 C.3     1  UNL1        0.2704
     38 H          15.5330   71.5014   -6.0123 H       1  UNL1        0.2105
     39 H          15.8641   69.8854   -6.9411 H       1  UNL1        0.2105
     40 H          17.6051   74.0039   -5.0895 H       1  UNL1        0.2106
     41 O          17.8296   70.0674  -10.0645 O.3     1  UNL1       -0.3794
     42 C          18.9510   69.7059   -9.2796 C.3     1  UNL1        0.1693
     43 H          17.8417   69.5657  -10.8951 H       1  UNL1        0.2105
@<TRIPOS>UNITY_ATOM_ATTR
2 1
charge -1
26 1
charge -1
@<TRIPOS>BOND
     1    25    28    1
     2    25    24    1
     3    25    26    1
     4    25    27    2
     5     1     4    1
     6     1    24    1
     7     1     2    1
     8     1     3    2
     9     6    11    1
    10     6    12    1
    11    29    36    1
    12    29    37    1
    13     7     9    1
    14     7    13    1
    15     8    10    1
    16     8    14    1
    17    28    37    1
    18     4     5    1
    19    30    33    1
    20    30    38    1
    21    31    34    1
    22    31    39    1
    23    32    35    1
    24    32    40    1
    25    41    42    1
    26    41    43    1
    27    15    19    2
    28    16    22    2
    29    17    12    1
    30    17    19   ar
    31    17    20   ar
    32    18    19   ar
    33    18    22   ar
    34    18    23    1
    35     9    10    1
    36     9    11    1
    37    10    12    1
    38    11     5    1
    39    33    34    1
    40    33    35    1
    41    34    36    1
    42    35    37    1
    43    36    42    1
    44    20    21   ar
    45    21    22   ar
@<TRIPOS>MOLECULE
*****
 43 45 0 0 0
SMALL
GASTEIGER

@<TRIPOS>ATOM
      1 P          22.0469   74.9708   -5.2490 P.3     1  UNL1        0.2189
      2 O          22.8297   76.3866   -5.2498 O.co2   1  UNL1       -0.4371
      3 O          22.2097   74.1558   -6.4983 O.2     1  UNL1       -0.5170
      4 O          20.5267   75.3677   -4.8622 O.3     1  UNL1       -0.3112
      5 C          19.4976   75.0932   -5.7967 C.3     1  UNL1        0.1811
      6 O          17.6681   73.5636   -6.0921 O.3     1  UNL1       -0.3308
      7 O          17.8506   73.0682   -3.1405 O.3     1  UNL1       -0.3794
      8 O          19.1243   70.8962   -4.1876 O.3     1  UNL1       -0.3779
      9 C          18.8953   73.3143   -4.0803 C.3     1  UNL1        0.1713
     10 C          19.1260   72.0908   -4.9424 C.3     1  UNL1        0.1895
     11 C          18.3833   74.3275   -5.0965 C.3     1  UNL1        0.1764
     12 C          17.9632   72.1682   -5.9170 C.3     1  UNL1        0.2383
     13 H          18.1542   72.4241   -2.4810 H       1  UNL1        0.2105
     14 H          19.8827   70.8945   -3.5830 H       1  UNL1        0.2106
     15 O          16.0518   71.1274   -7.7174 O.2     1  UNL1       -0.2464
     16 O          19.2944   69.9915  -10.7893 O.2     1  UNL1       -0.2670
     17 N          18.2801   71.5948   -7.1945 N.ar    1  UNL1       -0.2551
     18 N          17.6679   70.5628   -9.2455 N.ar    1  UNL1       -0.2743
     19 C          17.2458   71.0996   -8.0225 C.ar    1  UNL1        0.3323
     20 C          19.6040   71.5279   -7.6149 C.ar    1  UNL1        0.0869
     21 C          19.9900   71.0117   -8.7836 C.ar    1  UNL1        0.0795
     22 C          18.9714   70.4727   -9.7076 C.ar    1  UNL1        0.2626
     23 H          16.9647   70.2114   -9.8387 H       1  UNL1        0.1734
     24 O          22.5893   74.2564   -3.9042 O.3     1  UNL1       -0.2703
     25 P          22.9648   72.7141   -3.5990 P.3     1  UNL1        0.2208
     26 O          24.5395   72.6367   -3.9626 O.co2   1  UNL1       -0.4371
     27 O          22.1113   71.7170   -4.3280 O.2     1  UNL1       -0.5170
     28 O          22.9113   72.5911   -1.9906 O.3     1  UNL1       -0.2858
     29 O          23.6743   70.8266   -0.6047 O.3     1  UNL1       -0.3258
     30 O          20.3723   72.0003    1.5793 O.3     1  UNL1       -0.3794
     31 O          23.0051   72.6061    2.5535 O.3     1  UNL1       -0.3794
     32 O          20.2576   71.9797   -1.3131 O.3     1  UNL1       -0.3775
     33 C          21.5098   72.1903    0.7336 C.3     1  UNL1        0.1715
     34 C          22.7512   71.7014    1.4824 C.3     1  UNL1        0.1694
     35 C          21.3118   71.3953   -0.5557 C.3     1  UNL1        0.1967
     36 C          23.9667   71.6239    0.5488 C.3     1  UNL1        0.1761
     37 C          22.5944   71.3393   -1.3874 C.3     1  UNL1        0.2704
     38 H          20.4915   72.5028    2.3995 H       1  UNL1        0.2105
     39 H          22.2298   72.6461    3.1352 H       1  UNL1        0.2105
     40 H          19.4513   72.0091   -0.7757 H       1  UNL1        0.2106
     41 O          24.7190   70.2375    2.3434 O.3     1  UNL1       -0.3794
     42 C          25.1751   70.9902    1.2345 C.3     1  UNL1        0.1693
     43 H          25.4774   69.8281    2.7894 H       1  UNL1        0.2105
@<TRIPOS>UNITY_ATOM_ATTR
2 1
charge -1
26 1
charge -1
@<TRIPOS>BOND
     1    25    28    1
     2    25    24    1
     3    25    26    1
     4    25    27    2
     5     1     4    1
     6     1    24    1
     7     1     2    1
     8     1     3    2
     9     6    11    1
    10     6    12    1
    11    29    36    1
    12    29    37    1
    13     7     9    1
    14     7    13    1
    15     8    10    1
    16     8    14    1
    17    28    37    1
    18     4     5    1
    19    30    33    1
    20    30    38    1
    21    31    34    1
    22    31    39    1
    23    32    35    1
    24    32    40    1
    25    41    42    1
    26    41    43    1
    27    15    19    2
    28    16    22    2
    29    17    12    1
    30    17    19   ar
    31    17    20   ar
    32    18    19   ar
    33    18    22   ar
    34    18    23    1
    35     9    10    1
    36     9    11    1
    37    10    12    1
    38    11     5    1
    39    33    34    1
    40    33    35    1
    41    34    36    1
    42    35    37    1
    43    36    42    1
    44    20    21   ar
    45    21    22   ar
@<TRIPOS>MOLECULE
*****
 43 45 0 0 0
SMALL
GASTEIGER

@<TRIPOS>ATOM
      1 P          20.0931   72.1443   -1.0938 P.3     1  UNL1        0.2189
      2 O          20.2463   70.5354   -1.0196 O.co2   1  UNL1       -0.4371
      3 O          18.6815   72.6498   -1.0383 O.2     1  UNL1       -0.5170
      4 O          20.9348   72.5541   -2.4134 O.3     1  UNL1       -0.3112
      5 C          20.3304   72.3775   -3.6828 C.3     1  UNL1        0.1811
      6 O          20.6856   70.7839   -5.4458 O.3     1  UNL1       -0.3308
      7 O          23.1907   72.3102   -6.0666 O.3     1  UNL1       -0.3794
      8 O          21.4580   73.2125   -7.9693 O.3     1  UNL1       -0.3779
      9 C          21.9257   72.7957   -5.6201 C.3     1  UNL1        0.1713
     10 C          20.9168   72.7501   -6.7486 C.3     1  UNL1        0.1895
     11 C          21.3527   71.7798   -4.6398 C.3     1  UNL1        0.1764
     12 C          20.5572   71.2746   -6.7902 C.3     1  UNL1        0.2383
     13 H          23.5766   72.9426   -6.6936 H       1  UNL1        0.2105
     14 H          21.6704   74.1557   -7.8923 H       1  UNL1        0.2106
     15 O          19.8160   70.9492   -9.4963 O.2     1  UNL1       -0.2464
     16 O          15.3691   70.4241   -8.4055 O.2     1  UNL1       -0.2670
     17 N          19.2128   71.0511   -7.2418 N.ar    1  UNL1       -0.2551
     18 N          17.6024   70.6878   -8.9509 N.ar    1  UNL1       -0.2743
     19 C          18.9473   70.9016   -8.6230 C.ar    1  UNL1        0.3323
     20 C          18.1744   70.9817   -6.3193 C.ar    1  UNL1        0.0869
     21 C          16.8971   70.7785   -6.6484 C.ar    1  UNL1        0.0795
     22 C          16.5346   70.6122   -8.0708 C.ar    1  UNL1        0.2626
     23 H          17.3936   70.5813   -9.9074 H       1  UNL1        0.1734
     24 O          21.0387   72.6554    0.1135 O.3     1  UNL1       -0.2703
     25 P          22.5810   73.1393    0.1221 P.3     1  UNL1        0.2208
     26 O          22.5351   74.5393   -0.6876 O.co2   1  UNL1       -0.4371
     27 O          23.5449   72.1326   -0.4359 O.2     1  UNL1       -0.5170
     28 O          22.8678   73.5630    1.6528 O.3     1  UNL1       -0.2858
     29 O          24.6700   72.8951    3.0394 O.3     1  UNL1       -0.3258
     30 O          21.7185   73.2275    5.9080 O.3     1  UNL1       -0.3794
     31 O          23.8087   75.1935    5.7897 O.3     1  UNL1       -0.3794
     32 O          21.0790   72.1571    3.2956 O.3     1  UNL1       -0.3775
     33 C          22.4156   73.5772    4.7092 C.3     1  UNL1        0.1715
     34 C          23.8499   73.9575    5.0820 C.3     1  UNL1        0.1694
     35 C          22.4061   72.3809    3.7593 C.3     1  UNL1        0.1967
     36 C          24.7314   74.0864    3.8324 C.3     1  UNL1        0.1761
     37 C          23.3527   72.5917    2.5762 C.3     1  UNL1        0.2704
     38 H          21.7204   73.9830    6.5153 H       1  UNL1        0.2105
     39 H          23.2485   75.0987    6.5761 H       1  UNL1        0.2105
     40 H          20.4897   72.0248    4.0539 H       1  UNL1        0.2106
     41 O          27.0011   73.6667    3.2151 O.3     1  UNL1       -0.3794
     42 C          26.1995   74.3098    4.1887 C.3     1  UNL1        0.1693
     43 H          27.9382   73.8007    3.4289 H       1  UNL1        0.2105
@<TRIPOS>UNITY_ATOM_ATTR
2 1
charge -1
26 1
charge -1
@<TRIPOS>BOND
     1    25    28    1
     2    25    24    1
     3    25    26    1
     4    25    27    2
     5     1     4    1
     6     1    24    1
     7     1     2    1
     8     1     3    2
     9     6    11    1
    10     6    12    1
    11    29    36    1
    12    29    37    1
    13     7     9    1
    14     7    13    1
    15     8    10    1
    16     8    14    1
    17    28    37    1
    18     4     5    1
    19    30    33    1
    20    30    38    1
    21    31    34    1
    22    31    39    1
    23    32    35    1
    24    32    40    1
    25    41    42    1
    26    41    43    1
    27    15    19    2
    28    16    22    2
    29    17    12    1
    30    17    19   ar
    31    17    20   ar
    32    18    19   ar
    33    18    22   ar
    34    18    23    1
    35     9    10    1
    36     9    11    1
    37    10    12    1
    38    11     5    1
    39    33    34    1
    40    33    35    1
    41    34    36    1
    42    35    37    1
    43    36    42    1
    44    20    21   ar
    45    21    22   ar
@<TRIPOS>MOLECULE
*****
 43 45 0 0 0
SMALL
GASTEIGER

@<TRIPOS>ATOM
      1 P          21.8527   72.4790   -5.6204 P.3     1  UNL1        0.2189
      2 O          21.1966   73.9186   -5.2819 O.co2   1  UNL1       -0.4371
      3 O          23.0941   72.5304   -6.4618 O.2     1  UNL1       -0.5170
      4 O          20.6224   71.6262   -6.2346 O.3     1  UNL1       -0.3112
      5 C          20.1017   72.0040   -7.4971 C.3     1  UNL1        0.1811
      6 O          18.8795   69.9726   -7.1053 O.3     1  UNL1       -0.3308
      7 O          18.1348   70.0814  -10.0078 O.3     1  UNL1       -0.3794
      8 O          15.8900   71.0278   -8.7823 O.3     1  UNL1       -0.3779
      9 C          18.3001   71.1508   -9.0781 C.3     1  UNL1        0.1713
     10 C          17.1269   71.2022   -8.1218 C.3     1  UNL1        0.1895
     11 C          19.4525   70.7907   -8.1487 C.3     1  UNL1        0.1764
     12 C          17.4468   70.0628   -7.1691 C.3     1  UNL1        0.2383
     13 H          17.4043   70.2887  -10.6123 H       1  UNL1        0.2105
     14 H          15.7319   71.7779   -9.3765 H       1  UNL1        0.2106
     15 O          16.3147   68.0645   -5.5250 O.2     1  UNL1       -0.2464
     16 O          15.5137   71.0636   -2.1183 O.2     1  UNL1       -0.2670
     17 N          16.9348   70.2935   -5.8478 N.ar    1  UNL1       -0.2551
     18 N          15.9170   69.5594   -3.8300 N.ar    1  UNL1       -0.2743
     19 C          16.3860   69.2216   -5.1059 C.ar    1  UNL1        0.3323
     20 C          16.9801   71.5711   -5.3003 C.ar    1  UNL1        0.0869
     21 C          16.5274   71.8768   -4.0826 C.ar    1  UNL1        0.0795
     22 C          15.9387   70.8143   -3.2421 C.ar    1  UNL1        0.2626
     23 H          15.5300   68.8288   -3.2950 H       1  UNL1        0.1734
     24 O          22.0575   71.8201   -4.1586 O.3     1  UNL1       -0.2703
     25 P          23.2731   71.9421   -3.1002 P.3     1  UNL1        0.2208
     26 O          23.9444   73.3673   -3.4686 O.co2   1  UNL1       -0.4371
     27 O          24.2277   70.7835   -3.1232 O.2     1  UNL1       -0.5170
     28 O          22.5525   72.1868   -1.6769 O.3     1  UNL1       -0.2858
     29 O          23.4650   70.7367   -0.0394 O.3     1  UNL1       -0.3258
     30 O          20.3535   72.3348    2.1549 O.3     1  UNL1       -0.3794
     31 O          23.0529   73.1190    2.7433 O.3     1  UNL1       -0.3794
     32 O          19.9804   71.7308   -0.6514 O.3     1  UNL1       -0.3775
     33 C          21.4075   72.3476    1.1883 C.3     1  UNL1        0.1715
     34 C          22.7187   72.0171    1.9040 C.3     1  UNL1        0.1694
     35 C          21.1075   71.3091    0.1090 C.3     1  UNL1        0.1967
     36 C          23.8467   71.7500    0.8984 C.3     1  UNL1        0.1761
     37 C          22.3111   71.0833   -0.8077 C.3     1  UNL1        0.2704
     38 H          20.5376   72.9924    2.8428 H       1  UNL1        0.2105
     39 H          22.3323   73.2775    3.3733 H       1  UNL1        0.2105
     40 H          19.2251   71.8700   -0.0598 H       1  UNL1        0.2106
     41 O          24.8709   69.9922    2.1515 O.3     1  UNL1       -0.3794
     42 C          25.1218   71.2651    1.5847 C.3     1  UNL1        0.1693
     43 H          25.6739   69.6709    2.5915 H       1  UNL1        0.2105
@<TRIPOS>UNITY_ATOM_ATTR
2 1
charge -1
26 1
charge -1
@<TRIPOS>BOND
     1    25    28    1
     2    25    24    1
     3    25    26    1
     4    25    27    2
     5     1     4    1
     6     1    24    1
     7     1     2    1
     8     1     3    2
     9     6    11    1
    10     6    12    1
    11    29    36    1
    12    29    37    1
    13     7     9    1
    14     7    13    1
    15     8    10    1
    16     8    14    1
    17    28    37    1
    18     4     5    1
    19    30    33    1
    20    30    38    1
    21    31    34    1
    22    31    39    1
    23    32    35    1
    24    32    40    1
    25    41    42    1
    26    41    43    1
    27    15    19    2
    28    16    22    2
    29    17    12    1
    30    17    19   ar
    31    17    20   ar
    32    18    19   ar
    33    18    22   ar
    34    18    23    1
    35     9    10    1
    36     9    11    1
    37    10    12    1
    38    11     5    1
    39    33    34    1
    40    33    35    1
    41    34    36    1
    42    35    37    1
    43    36    42    1
    44    20    21   ar
    45    21    22   ar
@<TRIPOS>MOLECULE
*****
 43 45 0 0 0
SMALL
GASTEIGER

@<TRIPOS>ATOM
      1 P          22.7268   72.3009   -3.5836 P.3     1  UNL1        0.2189
      2 O          22.1309   70.7975   -3.6302 O.co2   1  UNL1       -0.4371
      3 O          24.1639   72.4260   -3.9965 O.2     1  UNL1       -0.5170
      4 O          22.3786   72.8106   -2.0880 O.3     1  UNL1       -0.3112
      5 C          23.3657   72.6751   -1.0805 C.3     1  UNL1        0.1811
      6 O          24.3402   71.0388    0.3846 O.3     1  UNL1       -0.3308
      7 O          21.5317   70.1753    0.9824 O.3     1  UNL1       -0.3794
      8 O          22.1600   71.6993    3.1547 O.3     1  UNL1       -0.3779
      9 C          22.0396   71.4854    0.7358 C.3     1  UNL1        0.1713
     10 C          22.8176   71.9823    1.9364 C.3     1  UNL1        0.1895
     11 C          23.1278   71.3749   -0.3248 C.3     1  UNL1        0.1764
     12 C          24.1311   71.2325    1.7930 C.3     1  UNL1        0.2383
     13 H          20.8348   70.2204    1.6565 H       1  UNL1        0.2105
     14 H          21.3304   72.1999    3.1984 H       1  UNL1        0.2106
     15 O          24.0615   73.9772    2.4561 O.2     1  UNL1       -0.2464
     16 O          28.4523   73.9380    3.8562 O.2     1  UNL1       -0.2670
     17 N          25.2416   71.9649    2.3330 N.ar    1  UNL1       -0.2551
     18 N          26.2478   73.9554    3.1528 N.ar    1  UNL1       -0.2743
     19 C          25.1026   73.3406    2.6307 C.ar    1  UNL1        0.3323
     20 C          26.4518   71.3194    2.5622 C.ar    1  UNL1        0.0869
     21 C          27.5349   71.9203    3.0594 C.ar    1  UNL1        0.0795
     22 C          27.4736   73.3569    3.3975 C.ar    1  UNL1        0.2626
     23 H          26.1745   74.9137    3.3675 H       1  UNL1        0.1734
     24 O          21.6882   73.1322   -4.5018 O.3     1  UNL1       -0.2703
     25 P          21.5579   73.2595   -6.1079 P.3     1  UNL1        0.2208
     26 O          22.7651   72.3304   -6.6529 O.co2   1  UNL1       -0.4371
     27 O          21.5846   74.6714   -6.6175 O.2     1  UNL1       -0.5170
     28 O          20.2160   72.4412   -6.4750 O.3     1  UNL1       -0.2858
     29 O          19.3380   70.2552   -6.2162 O.3     1  UNL1       -0.3258
     30 O          18.7242   70.7370  -10.2711 O.3     1  UNL1       -0.3794
     31 O          16.4804   70.8028   -8.4797 O.3     1  UNL1       -0.3794
     32 O          21.1318   71.7726   -9.0420 O.3     1  UNL1       -0.3775
     33 C          18.8069   71.1578   -8.9068 C.3     1  UNL1        0.1715
     34 C          17.7806   70.3633   -8.0968 C.3     1  UNL1        0.1694
     35 C          20.2198   70.8964   -8.3885 C.3     1  UNL1        0.1967
     36 C          17.9898   70.5628   -6.5896 C.3     1  UNL1        0.1761
     37 C          20.3072   71.0753   -6.8718 C.3     1  UNL1        0.2704
     38 H          17.8296   70.9007  -10.6064 H       1  UNL1        0.2105
     39 H          16.3614   70.6718   -9.4336 H       1  UNL1        0.2105
     40 H          21.0671   71.6495  -10.0015 H       1  UNL1        0.2106
     41 O          15.8282   69.5598   -6.4151 O.3     1  UNL1       -0.3794
     42 C          17.0800   69.6583   -5.7612 C.3     1  UNL1        0.1693
     43 H          15.2389   68.9867   -5.8993 H       1  UNL1        0.2105
@<TRIPOS>UNITY_ATOM_ATTR
2 1
charge -1
26 1
charge -1
@<TRIPOS>BOND
     1    25    28    1
     2    25    24    1
     3    25    26    1
     4    25    27    2
     5     1     4    1
     6     1    24    1
     7     1     2    1
     8     1     3    2
     9     6    11    1
    10     6    12    1
    11    29    36    1
    12    29    37    1
    13     7     9    1
    14     7    13    1
    15     8    10    1
    16     8    14    1
    17    28    37    1
    18     4     5    1
    19    30    33    1
    20    30    38    1
    21    31    34    1
    22    31    39    1
    23    32    35    1
    24    32    40    1
    25    41    42    1
    26    41    43    1
    27    15    19    2
    28    16    22    2
    29    17    12    1
    30    17    19   ar
    31    17    20   ar
    32    18    19   ar
    33    18    22   ar
    34    18    23    1
    35     9    10    1
    36     9    11    1
    37    10    12    1
    38    11     5    1
    39    33    34    1
    40    33    35    1
    41    34    36    1
    42    35    37    1
    43    36    42    1
    44    20    21   ar
    45    21    22   ar
@<TRIPOS>MOLECULE
*****
 43 45 0 0 0
SMALL
GASTEIGER

@<TRIPOS>ATOM
      1 P          21.5422   73.4364   -2.7667 P.3     1  UNL1        0.2189
      2 O          22.2682   72.0235   -3.0734 O.co2   1  UNL1       -0.4371
      3 O          22.4169   74.6455   -2.9228 O.2     1  UNL1       -0.5170
      4 O          20.8878   73.2270   -1.3019 O.3     1  UNL1       -0.3112
      5 C          20.1883   74.3094   -0.7128 C.3     1  UNL1        0.1811
      6 O          20.1731   72.5937    0.9694 O.3     1  UNL1       -0.3308
      7 O          18.7384   74.5716    2.7074 O.3     1  UNL1       -0.3794
      8 O          21.2971   74.7059    3.6411 O.3     1  UNL1       -0.3779
      9 C          19.7720   74.7950    1.7497 C.3     1  UNL1        0.1713
     10 C          21.1043   74.3240    2.2944 C.3     1  UNL1        0.1895
     11 C          19.5479   73.8379    0.5856 C.3     1  UNL1        0.1764
     12 C          21.0001   72.8180    2.1229 C.3     1  UNL1        0.2383
     13 H          18.8602   75.1718    3.4602 H       1  UNL1        0.2105
     14 H          21.3571   75.6723    3.6979 H       1  UNL1        0.2106
     15 O          21.3642   70.2393    1.0296 O.2     1  UNL1       -0.2464
     16 O          25.9516   70.5550    1.3414 O.2     1  UNL1       -0.2670
     17 N          22.2787   72.2017    1.9070 N.ar    1  UNL1       -0.2551
     18 N          23.6481   70.3986    1.1856 N.ar    1  UNL1       -0.2743
     19 C          22.3518   70.9023    1.3530 C.ar    1  UNL1        0.3323
     20 C          23.4427   72.8844    2.2429 C.ar    1  UNL1        0.0869
     21 C          24.6712   72.3895    2.0782 C.ar    1  UNL1        0.0795
     22 C          24.8354   71.0379    1.5053 C.ar    1  UNL1        0.2626
     23 H          23.7236   69.4949    0.8016 H       1  UNL1        0.1734
     24 O          20.2570   73.4049   -3.7467 O.3     1  UNL1       -0.2703
     25 P          19.9391   74.2181   -5.1070 P.3     1  UNL1        0.2208
     26 O          21.4072   74.4804   -5.7342 O.co2   1  UNL1       -0.4371
     27 O          19.1213   75.4607   -4.9042 O.2     1  UNL1       -0.5170
     28 O          19.2659   73.1270   -6.0875 O.3     1  UNL1       -0.2858
     29 O          17.8441   71.2336   -5.9862 O.3     1  UNL1       -0.3258
     30 O          21.0157   69.5680   -8.0400 O.3     1  UNL1       -0.3794
     31 O          18.5638   70.1256   -9.4276 O.3     1  UNL1       -0.3794
     32 O          21.5115   71.4543   -5.9009 O.3     1  UNL1       -0.3775
     33 C          20.1077   70.6076   -7.6655 C.3     1  UNL1        0.1715
     34 C          18.6883   70.1512   -8.0084 C.3     1  UNL1        0.1694
     35 C          20.2406   70.8706   -6.1667 C.3     1  UNL1        0.1967
     36 C          17.6410   71.0917   -7.3970 C.3     1  UNL1        0.1761
     37 C          19.1221   71.7779   -5.6510 C.3     1  UNL1        0.2704
     38 H          20.9366   69.3965   -8.9907 H       1  UNL1        0.2105
     39 H          19.2310   69.5285   -9.8012 H       1  UNL1        0.2105
     40 H          22.2110   70.8703   -6.2318 H       1  UNL1        0.2106
     41 O          15.8106   70.8639   -8.9157 O.3     1  UNL1       -0.3794
     42 C          16.2195   70.5693   -7.5927 C.3     1  UNL1        0.1693
     43 H          14.9075   70.5369   -9.0548 H       1  UNL1        0.2105
@<TRIPOS>UNITY_ATOM_ATTR
2 1
charge -1
26 1
charge -1
@<TRIPOS>BOND
     1    25    28    1
     2    25    24    1
     3    25    26    1
     4    25    27    2
     5     1     4    1
     6     1    24    1
     7     1     2    1
     8     1     3    2
     9     6    11    1
    10     6    12    1
    11    29    36    1
    12    29    37    1
    13     7     9    1
    14     7    13    1
    15     8    10    1
    16     8    14    1
    17    28    37    1
    18     4     5    1
    19    30    33    1
    20    30    38    1
    21    31    34    1
    22    31    39    1
    23    32    35    1
    24    32    40    1
    25    41    42    1
    26    41    43    1
    27    15    19    2
    28    16    22    2
    29    17    12    1
    30    17    19   ar
    31    17    20   ar
    32    18    19   ar
    33    18    22   ar
    34    18    23    1
    35     9    10    1
    36     9    11    1
    37    10    12    1
    38    11     5    1
    39    33    34    1
    40    33    35    1
    41    34    36    1
    42    35    37    1
    43    36    42    1
    44    20    21   ar
    45    21    22   ar
@<TRIPOS>MOLECULE
*****
 43 45 0 0 0
SMALL
GASTEIGER

@<TRIPOS>ATOM
      1 P          23.5082   74.1253   -4.1799 P.3     1  UNL1        0.2189
      2 O          23.8746   75.1641   -5.3649 O.co2   1  UNL1       -0.4371
      3 O          24.4637   72.9789   -4.0242 O.2     1  UNL1       -0.5170
      4 O          21.9699   73.7224   -4.4785 O.3     1  UNL1       -0.3112
      5 C          21.6047   72.3547   -4.4150 C.3     1  UNL1        0.1811
      6 O          20.5342   70.6659   -5.7476 O.3     1  UNL1       -0.3308
      7 O          20.9446   72.5090   -8.0768 O.3     1  UNL1       -0.3794
      8 O          18.3201   72.9118   -7.4554 O.3     1  UNL1       -0.3779
      9 C          20.6359   72.8245   -6.7202 C.3     1  UNL1        0.1713
     10 C          19.1881   72.4967   -6.4205 C.3     1  UNL1        0.1895
     11 C          21.3770   71.8362   -5.8283 C.3     1  UNL1        0.1764
     12 C          19.2326   70.9861   -6.2654 C.3     1  UNL1        0.2383
     13 H          20.4829   73.1273   -8.6655 H       1  UNL1        0.2105
     14 H          18.3265   73.8799   -7.5142 H       1  UNL1        0.2106
     15 O          16.5925   70.3055   -7.0032 O.2     1  UNL1       -0.2464
     16 O          15.4932   69.1309   -2.6843 O.2     1  UNL1       -0.2670
     17 N          18.2356   70.4994   -5.3541 N.ar    1  UNL1       -0.2551
     18 N          16.0473   69.7210   -4.8521 N.ar    1  UNL1       -0.2743
     19 C          16.9393   70.1875   -5.8262 C.ar    1  UNL1        0.3323
     20 C          18.5473   70.3355   -4.0088 C.ar    1  UNL1        0.0869
     21 C          17.6849   69.8908   -3.0924 C.ar    1  UNL1        0.0795
     22 C          16.3094   69.5424   -3.5030 C.ar    1  UNL1        0.2626
     23 H          15.1382   69.4978   -5.1578 H       1  UNL1        0.1734
     24 O          23.3880   75.0818   -2.8824 O.3     1  UNL1       -0.2703
     25 P          22.1856   75.2852   -1.8213 P.3     1  UNL1        0.2208
     26 O          20.8920   75.5139   -2.7657 O.co2   1  UNL1       -0.4371
     27 O          22.4248   76.3805   -0.8228 O.2     1  UNL1       -0.5170
     28 O          21.9628   73.8247   -1.1715 O.3     1  UNL1       -0.2858
     29 O          23.2008   73.8629    0.8490 O.3     1  UNL1       -0.3258
     30 O          21.6771   70.0320    1.0811 O.3     1  UNL1       -0.3794
     31 O          20.6409   72.0773    2.8106 O.3     1  UNL1       -0.3794
     32 O          22.5327   71.0935   -1.4725 O.3     1  UNL1       -0.3775
     33 C          21.6606   71.4229    0.7483 C.3     1  UNL1        0.1715
     34 C          21.8295   72.2267    2.0391 C.3     1  UNL1        0.1694
     35 C          22.8030   71.7175   -0.2220 C.3     1  UNL1        0.1967
     36 C          22.0886   73.7092    1.7385 C.3     1  UNL1        0.1761
     37 C          23.0079   73.2214   -0.4132 C.3     1  UNL1        0.2704
     38 H          20.9539   69.8381    1.6965 H       1  UNL1        0.2105
     39 H          20.4886   71.1367    2.9930 H       1  UNL1        0.2105
     40 H          22.4053   70.1419   -1.3380 H       1  UNL1        0.2106
     41 O          23.5074   75.3587    2.7260 O.3     1  UNL1       -0.3794
     42 C          22.4162   74.5003    3.0030 C.3     1  UNL1        0.1693
     43 H          23.7268   75.8689    3.5218 H       1  UNL1        0.2105
@<TRIPOS>UNITY_ATOM_ATTR
2 1
charge -1
26 1
charge -1
@<TRIPOS>BOND
     1    25    28    1
     2    25    24    1
     3    25    26    1
     4    25    27    2
     5     1     4    1
     6     1    24    1
     7     1     2    1
     8     1     3    2
     9     6    11    1
    10     6    12    1
    11    29    36    1
    12    29    37    1
    13     7     9    1
    14     7    13    1
    15     8    10    1
    16     8    14    1
    17    28    37    1
    18     4     5    1
    19    30    33    1
    20    30    38    1
    21    31    34    1
    22    31    39    1
    23    32    35    1
    24    32    40    1
    25    41    42    1
    26    41    43    1
    27    15    19    2
    28    16    22    2
    29    17    12    1
    30    17    19   ar
    31    17    20   ar
    32    18    19   ar
    33    18    22   ar
    34    18    23    1
    35     9    10    1
    36     9    11    1
    37    10    12    1
    38    11     5    1
    39    33    34    1
    40    33    35    1
    41    34    36    1
    42    35    37    1
    43    36    42    1
    44    20    21   ar
    45    21    22   ar
@<TRIPOS>MOLECULE
*****
 43 45 0 0 0
SMALL
GASTEIGER

@<TRIPOS>ATOM
      1 P          22.5904   72.6443   -3.1557 P.3     1  UNL1        0.2189
      2 O          23.8486   71.6389   -3.3093 O.co2   1  UNL1       -0.4371
      3 O          22.7377   73.9571   -3.8672 O.2     1  UNL1       -0.5170
      4 O          22.3576   72.7337   -1.5570 O.3     1  UNL1       -0.3112
      5 C          23.4805   72.6067   -0.7021 C.3     1  UNL1        0.1811
      6 O          24.0215   71.6916    1.4528 O.3     1  UNL1       -0.3308
      7 O          21.5690   69.9950    1.1402 O.3     1  UNL1       -0.3794
      8 O          20.7110   71.9796    2.8021 O.3     1  UNL1       -0.3779
      9 C          21.7948   71.3401    0.7218 C.3     1  UNL1        0.1713
     10 C          21.7708   72.2729    1.9147 C.3     1  UNL1        0.1895
     11 C          23.2426   71.4511    0.2603 C.3     1  UNL1        0.1764
     12 C          23.1364   72.0279    2.5337 C.3     1  UNL1        0.2383
     13 H          20.6505   69.8995    1.4391 H       1  UNL1        0.2105
     14 H          19.8638   72.1513    2.3621 H       1  UNL1        0.2106
     15 O          25.0498   73.7982    1.4461 O.2     1  UNL1       -0.2464
     16 O          25.0218   76.4398    5.2226 O.2     1  UNL1       -0.2670
     17 N          23.6467   73.1867    3.2108 N.ar    1  UNL1       -0.2551
     18 N          25.0342   75.1122    3.3273 N.ar    1  UNL1       -0.2743
     19 C          24.6063   74.0098    2.5766 C.ar    1  UNL1        0.3323
     20 C          23.1955   73.4971    4.4890 C.ar    1  UNL1        0.0869
     21 C          23.6145   74.5514    5.1920 C.ar    1  UNL1        0.0795
     22 C          24.6166   75.4620    4.6016 C.ar    1  UNL1        0.2626
     23 H          25.7028   75.6996    2.9059 H       1  UNL1        0.1734
     24 O          21.3434   71.7448   -3.6547 O.3     1  UNL1       -0.2703
     25 P          19.8628   71.5471   -3.0370 P.3     1  UNL1        0.2208
     26 O          19.4484   73.0430   -2.5806 O.co2   1  UNL1       -0.4371
     27 O          19.7842   70.5219   -1.9432 O.2     1  UNL1       -0.5170
     28 O          18.9257   71.2362   -4.3138 O.3     1  UNL1       -0.2858
     29 O          17.0400   72.3639   -5.2022 O.3     1  UNL1       -0.3258
     30 O          15.8067   68.4647   -5.7734 O.3     1  UNL1       -0.3794
     31 O          16.6032   70.0457   -8.0349 O.3     1  UNL1       -0.3794
     32 O          17.2591   69.1831   -3.3747 O.3     1  UNL1       -0.3775
     33 C          16.7527   69.5350   -5.7030 C.3     1  UNL1        0.1715
     34 C          16.3618   70.5896   -6.7402 C.3     1  UNL1        0.1694
     35 C          16.7294   70.1300   -4.2962 C.3     1  UNL1        0.1967
     36 C          17.1652   71.8826   -6.5455 C.3     1  UNL1        0.1761
     37 C          17.5178   71.4389   -4.2235 C.3     1  UNL1        0.2704
     38 H          15.8168   68.0823   -6.6640 H       1  UNL1        0.2105
     39 H          16.0905   69.2294   -8.1448 H       1  UNL1        0.2105
     40 H          16.7513   68.3591   -3.4302 H       1  UNL1        0.2106
     41 O          17.0486   72.6779   -8.7956 O.3     1  UNL1       -0.3794
     42 C          16.6818   73.0005   -7.4668 C.3     1  UNL1        0.1693
     43 H          16.7471   73.3805   -9.3932 H       1  UNL1        0.2105
@<TRIPOS>UNITY_ATOM_ATTR
2 1
charge -1
26 1
charge -1
@<TRIPOS>BOND
     1    25    28    1
     2    25    24    1
     3    25    26    1
     4    25    27    2
     5     1     4    1
     6     1    24    1
     7     1     2    1
     8     1     3    2
     9     6    11    1
    10     6    12    1
    11    29    36    1
    12    29    37    1
    13     7     9    1
    14     7    13    1
    15     8    10    1
    16     8    14    1
    17    28    37    1
    18     4     5    1
    19    30    33    1
    20    30    38    1
    21    31    34    1
    22    31    39    1
    23    32    35    1
    24    32    40    1
    25    41    42    1
    26    41    43    1
    27    15    19    2
    28    16    22    2
    29    17    12    1
    30    17    19   ar
    31    17    20   ar
    32    18    19   ar
    33    18    22   ar
    34    18    23    1
    35     9    10    1
    36     9    11    1
    37    10    12    1
    38    11     5    1
    39    33    34    1
    40    33    35    1
    41    34    36    1
    42    35    37    1
    43    36    42    1
    44    20    21   ar
    45    21    22   ar
@<TRIPOS>MOLECULE
*****
 43 45 0 0 0
SMALL
GASTEIGER

@<TRIPOS>ATOM
      1 P          19.0920   71.5946   -2.3137 P.3     1  UNL1        0.2189
      2 O          17.5082   71.9032   -2.1967 O.co2   1  UNL1       -0.4371
      3 O          19.5132   70.2440   -1.8138 O.2     1  UNL1       -0.5170
      4 O          19.7893   72.8613   -1.5876 O.3     1  UNL1       -0.3112
      5 C          20.4588   72.6508   -0.3567 C.3     1  UNL1        0.1811
      6 O          22.6049   73.3884    0.4335 O.3     1  UNL1       -0.3308
      7 O          23.7714   71.2198   -1.2775 O.3     1  UNL1       -0.3794
      8 O          23.8407   70.1132    1.2139 O.3     1  UNL1       -0.3779
      9 C          22.5576   71.2229   -0.5278 C.3     1  UNL1        0.1713
     10 C          22.8529   71.0891    0.9515 C.3     1  UNL1        0.1895
     11 C          21.9603   72.6223   -0.6076 C.3     1  UNL1        0.1764
     12 C          23.3086   72.4933    1.3101 C.3     1  UNL1        0.2383
     13 H          24.1712   70.3362   -1.2415 H       1  UNL1        0.2105
     14 H          23.5032   69.2374    0.9694 H       1  UNL1        0.2106
     15 O          20.8742   71.8795    2.6044 O.2     1  UNL1       -0.2464
     16 O          22.2496   73.8639    6.5303 O.2     1  UNL1       -0.2670
     17 N          23.0039   72.8374    2.6704 N.ar    1  UNL1       -0.2551
     18 N          21.5611   72.8679    4.5582 N.ar    1  UNL1       -0.2743
     19 C          21.7517   72.4837    3.2248 C.ar    1  UNL1        0.3323
     20 C          23.9415   73.5176    3.4398 C.ar    1  UNL1        0.0869
     21 C          23.7438   73.8779    4.7096 C.ar    1  UNL1        0.0795
     22 C          22.4617   73.5463    5.3641 C.ar    1  UNL1        0.2626
     23 H          20.6959   72.6324    4.9654 H       1  UNL1        0.1734
     24 O          19.3991   71.8585   -3.8786 O.3     1  UNL1       -0.2703
     25 P          18.9831   73.0813   -4.8505 P.3     1  UNL1        0.2208
     26 O          19.9540   74.2833   -4.3709 O.co2   1  UNL1       -0.4371
     27 O          17.5204   73.4185   -4.8236 O.2     1  UNL1       -0.5170
     28 O          19.5453   72.6581   -6.3031 O.3     1  UNL1       -0.2858
     29 O          18.9258   70.3741   -6.1749 O.3     1  UNL1       -0.3258
     30 O          19.6323   70.6393  -10.2346 O.3     1  UNL1       -0.3794
     31 O          16.9337   70.4224   -9.2762 O.3     1  UNL1       -0.3794
     32 O          21.3389   72.0583   -8.3763 O.3     1  UNL1       -0.3775
     33 C          19.2024   71.1078   -8.9535 C.3     1  UNL1        0.1715
     34 C          18.0794   70.1932   -8.4605 C.3     1  UNL1        0.1694
     35 C          20.3853   71.0755   -7.9875 C.3     1  UNL1        0.1967
     36 C          17.7494   70.4661   -6.9869 C.3     1  UNL1        0.1761
     37 C          19.9411   71.3100   -6.5426 C.3     1  UNL1        0.2704
     38 H          18.8860   70.6578  -10.8528 H       1  UNL1        0.2105
     39 H          17.1557   70.2470  -10.2042 H       1  UNL1        0.2105
     40 H          21.6124   71.8987   -9.2926 H       1  UNL1        0.2106
     41 O          15.4805   69.7176   -7.0159 O.3     1  UNL1       -0.3794
     42 C          16.7436   69.4607   -6.4303 C.3     1  UNL1        0.1693
     43 H          14.8303   69.0851   -6.6712 H       1  UNL1        0.2105
@<TRIPOS>UNITY_ATOM_ATTR
2 1
charge -1
26 1
charge -1
@<TRIPOS>BOND
     1    25    28    1
     2    25    24    1
     3    25    26    1
     4    25    27    2
     5     1     4    1
     6     1    24    1
     7     1     2    1
     8     1     3    2
     9     6    11    1
    10     6    12    1
    11    29    36    1
    12    29    37    1
    13     7     9    1
    14     7    13    1
    15     8    10    1
    16     8    14    1
    17    28    37    1
    18     4     5    1
    19    30    33    1
    20    30    38    1
    21    31    34    1
    22    31    39    1
    23    32    35    1
    24    32    40    1
    25    41    42    1
    26    41    43    1
    27    15    19    2
    28    16    22    2
    29    17    12    1
    30    17    19   ar
    31    17    20   ar
    32    18    19   ar
    33    18    22   ar
    34    18    23    1
    35     9    10    1
    36     9    11    1
    37    10    12    1
    38    11     5    1
    39    33    34    1
    40    33    35    1
    41    34    36    1
    42    35    37    1
    43    36    42    1
    44    20    21   ar
    45    21    22   ar
@<TRIPOS>MOLECULE
*****
 43 45 0 0 0
SMALL
GASTEIGER

@<TRIPOS>ATOM
      1 P          22.7171   73.0143   -4.8727 P.3     1  UNL1        0.2189
      2 O          23.0209   72.3288   -6.3063 O.co2   1  UNL1       -0.4371
      3 O          23.0125   74.4834   -4.7973 O.2     1  UNL1       -0.5170
      4 O          23.5165   72.0819   -3.8193 O.3     1  UNL1       -0.3112
      5 C          23.5193   72.4555   -2.4524 C.3     1  UNL1        0.1811
      6 O          23.7471   70.9841   -0.5664 O.3     1  UNL1       -0.3308
      7 O          20.7712   70.6456   -0.7087 O.3     1  UNL1       -0.3794
      8 O          21.0698   72.4266    1.3347 O.3     1  UNL1       -0.3779
      9 C          21.5604   71.8062   -0.9644 C.3     1  UNL1        0.1713
     10 C          22.0687   72.3933    0.3358 C.3     1  UNL1        0.1895
     11 C          22.8517   71.3568   -1.6368 C.3     1  UNL1        0.1764
     12 C          23.2101   71.4521    0.6816 C.3     1  UNL1        0.2383
     13 H          19.9410   70.9074   -0.2797 H       1  UNL1        0.2105
     14 H          20.3663   73.0390    1.0683 H       1  UNL1        0.2106
     15 O          24.9736   70.1355    2.4521 O.2     1  UNL1       -0.2464
     16 O          27.1706   74.0568    3.4708 O.2     1  UNL1       -0.2670
     17 N          24.2527   72.1045    1.4224 N.ar    1  UNL1       -0.2551
     18 N          26.0662   72.0890    2.9578 N.ar    1  UNL1       -0.2743
     19 C          25.0828   71.3520    2.2856 C.ar    1  UNL1        0.3323
     20 C          24.4439   73.4755    1.2890 C.ar    1  UNL1        0.0869
     21 C          25.3854   74.1636    1.9381 C.ar    1  UNL1        0.0795
     22 C          26.2949   73.4524    2.8594 C.ar    1  UNL1        0.2626
     23 H          26.6561   71.5858    3.5649 H       1  UNL1        0.1734
     24 O          21.1717   72.6241   -4.6035 O.3     1  UNL1       -0.2703
     25 P          19.7994   73.3254   -5.0911 P.3     1  UNL1        0.2208
     26 O          20.2452   74.8541   -5.3772 O.co2   1  UNL1       -0.4371
     27 O          18.6588   73.1833   -4.1252 O.2     1  UNL1       -0.5170
     28 O          19.5192   72.7020   -6.5532 O.3     1  UNL1       -0.2858
     29 O          18.7832   70.4901   -6.1266 O.3     1  UNL1       -0.3258
     30 O          18.5154   70.4913  -10.2472 O.3     1  UNL1       -0.3794
     31 O          16.1160   70.5586   -8.6703 O.3     1  UNL1       -0.3794
     32 O          20.7161   71.8460   -8.9428 O.3     1  UNL1       -0.3775
     33 C          18.4399   71.0584   -8.9364 C.3     1  UNL1        0.1715
     34 C          17.4036   70.2709   -8.1322 C.3     1  UNL1        0.1694
     35 C          19.8139   70.9707   -8.2747 C.3     1  UNL1        0.1967
     36 C          17.4566   70.6441   -6.6446 C.3     1  UNL1        0.1761
     37 C          19.7466   71.3144   -6.7856 C.3     1  UNL1        0.2704
     38 H          17.6463   70.5443  -10.6730 H       1  UNL1        0.2105
     39 H          16.0961   70.3188   -9.6102 H       1  UNL1        0.2105
     40 H          20.7500   71.6180   -9.8844 H       1  UNL1        0.2106
     41 O          15.8972   70.5705   -4.8358 O.3     1  UNL1       -0.3794
     42 C          16.5424   69.7592   -5.8000 C.3     1  UNL1        0.1693
     43 H          15.3117   70.0208   -4.2911 H       1  UNL1        0.2105
@<TRIPOS>UNITY_ATOM_ATTR
2 1
charge -1
26 1
charge -1
@<TRIPOS>BOND
     1    25    28    1
     2    25    24    1
     3    25    26    1
     4    25    27    2
     5     1     4    1
     6     1    24    1
     7     1     2    1
     8     1     3    2
     9     6    11    1
    10     6    12    1
    11    29    36    1
    12    29    37    1
    13     7     9    1
    14     7    13    1
    15     8    10    1
    16     8    14    1
    17    28    37    1
    18     4     5    1
    19    30    33    1
    20    30    38    1
    21    31    34    1
    22    31    39    1
    23    32    35    1
    24    32    40    1
    25    41    42    1
    26    41    43    1
    27    15    19    2
    28    16    22    2
    29    17    12    1
    30    17    19   ar
    31    17    20   ar
    32    18    19   ar
    33    18    22   ar
    34    18    23    1
    35     9    10    1
    36     9    11    1
    37    10    12    1
    38    11     5    1
    39    33    34    1
    40    33    35    1
    41    34    36    1
    42    35    37    1
    43    36    42    1
    44    20    21   ar
    45    21    22   ar
