@<TRIPOS>MOLECULE
UD1
 46 48 0 0 0
SMALL
GASTEIGER

@<TRIPOS>ATOM
      1 P          21.6414   70.8365   -2.5548 P.3     1  UNL1        0.2189
      2 O          23.1076   71.0134   -2.6426 O.2     1  UNL1       -0.5170
      3 O          21.2678   69.2981   -2.8488 O.3     1  UNL1       -0.4371
      4 O          20.9215   71.7800   -3.6431 O.3     1  UNL1       -0.3112
      5 C          19.8539   72.4486   -2.9696 C.3     1  UNL1        0.1811
      6 C          17.8724   71.3274   -5.7524 C.3     1  UNL1        0.2383
      7 C          17.9614   70.0950   -4.8177 C.3     1  UNL1        0.1895
      8 O          16.7897   69.2859   -4.9258 O.3     1  UNL1       -0.3779
      9 C          18.0510   70.7546   -3.4169 C.3     1  UNL1        0.1713
     10 C          18.5404   72.1865   -3.7080 C.3     1  UNL1        0.1764
     11 O          18.7482   72.2894   -5.1269 O.3     1  UNL1       -0.3308
     12 O          16.7665   70.7756   -2.7906 O.3     1  UNL1       -0.3794
     13 H          16.9082   68.5393   -4.3223 H       1  UNL1        0.2106
     14 H          16.4897   69.8550   -2.6903 H       1  UNL1        0.2105
     15 N          18.3464   70.9951   -7.0964 N.ar    1  UNL1       -0.2551
     16 C          17.4635   70.6359   -8.0444 C.ar    1  UNL1        0.3323
     17 N          17.8708   70.3288   -9.2902 N.ar    1  UNL1       -0.2743
     18 C          19.1810   70.3683   -9.6059 C.ar    1  UNL1        0.2626
     19 C          20.1219   70.7391   -8.6158 C.ar    1  UNL1        0.0795
     20 C          19.6855   71.0473   -7.3757 C.ar    1  UNL1        0.0869
     21 O          16.2784   70.5956   -7.7751 O.2     1  UNL1       -0.2464
     22 O          19.5508   70.0862  -10.7306 O.2     1  UNL1       -0.2670
     23 H          17.2197   70.0763   -9.9629 H       1  UNL1        0.1734
     24 O          21.1396   71.2392   -1.0800 O.3     1  UNL1       -0.2703
     25 P          22.2811   70.7580   -0.0530 P.3     1  UNL1        0.2208
     26 O          23.4578   70.2804   -0.8120 O.2     1  UNL1       -0.5170
     27 O          21.7115   69.5614    0.8614 O.3     1  UNL1       -0.4371
     28 O          22.7132   71.9908    0.8871 O.3     1  UNL1       -0.2865
     29 C          21.5251   72.7314    1.1717 C.3     1  UNL1        0.2611
     30 C          21.7245   74.1880    0.7491 C.3     1  UNL1        0.1582
     31 C          22.9209   74.7712    1.5096 C.3     1  UNL1        0.1625
     32 C          22.7019   74.5518    3.0102 C.3     1  UNL1        0.1686
     33 C          22.4317   73.0670    3.2626 C.3     1  UNL1        0.1760
     34 O          23.0258   76.1698    1.2370 O.3     1  UNL1       -0.3801
     35 O          23.8699   74.9551    3.7276 O.3     1  UNL1       -0.3794
     36 O          21.2501   72.6674    2.5694 O.3     1  UNL1       -0.3263
     37 H          23.7893   76.4948    1.7339 H       1  UNL1        0.2105
     38 H          23.6896   74.7997    4.6656 H       1  UNL1        0.2105
     39 C          23.2470   74.3099   -1.1487 C.2     1  UNL1        0.2231
     40 C          23.5110   74.3737   -2.6314 C.3     1  UNL1        0.0946
     41 N          21.9816   74.2495   -0.6912 N.am    1  UNL1       -0.2994
     42 O          24.1740   74.3137   -0.3671 O.2     1  UNL1       -0.2751
     43 H          21.2396   74.2467   -1.3165 H       1  UNL1        0.1496
     44 C          22.2438   72.8318    4.7627 C.3     1  UNL1        0.1693
     45 O          20.8614   72.9700    5.0975 O.3     1  UNL1       -0.3794
     46 H          20.7870   72.8149    6.0488 H       1  UNL1        0.2105
@<TRIPOS>BOND
     1    29    30    1
     2    29    28    1
     3    29    36    1
     4    30    31    1
     5    30    41    1
     6    31    32    1
     7    31    34    1
     8    32    33    1
     9    32    35    1
    10    33    44    1
    11    33    36    1
    12    44    45    1
    13    39    40    1
    14    39    41   am
    15    39    42    2
    16    41    43    1
    17    28    25    1
    18    34    37    1
    19    35    38    1
    20    45    46    1
    21    15    16   ar
    22    15    20   ar
    23    15     6    1
    24    16    17   ar
    25    16    21    2
    26    17    18   ar
    27    17    23    1
    28    18    19   ar
    29    18    22    2
    30    19    20   ar
    31     6     7    1
    32     6    11    1
    33     7     8    1
    34     7     9    1
    35     8    13    1
    36     9    10    1
    37     9    12    1
    38    10    11    1
    39    10     5    1
    40    12    14    1
    41     5     4    1
    42     4     1    1
    43     1     2    2
    44     1     3    1
    45     1    24    1
    46    24    25    1
    47    25    26    2
    48    25    27    1
@<TRIPOS>MOLECULE
UD1
 46 48 0 0 0
SMALL
GASTEIGER

@<TRIPOS>ATOM
      1 P          22.4805   71.3245   -2.5157 P.3     1  UNL1        0.2189
      2 O          23.5211   70.6531   -3.3251 O.2     1  UNL1       -0.5170
      3 O          22.0889   70.3910   -1.2636 O.3     1  UNL1       -0.4371
      4 O          21.1753   71.5779   -3.4240 O.3     1  UNL1       -0.3112
      5 C          20.1953   72.1846   -2.5802 C.3     1  UNL1        0.1811
      6 C          17.9453   71.3867   -5.2687 C.3     1  UNL1        0.2383
      7 C          17.9725   70.1089   -4.3931 C.3     1  UNL1        0.1895
      8 O          16.7235   69.4194   -4.4562 O.3     1  UNL1       -0.3779
      9 C          18.2126   70.6906   -2.9757 C.3     1  UNL1        0.1713
     10 C          18.8192   72.0822   -3.2398 C.3     1  UNL1        0.1764
     11 O          18.9473   72.2317   -4.6641 O.3     1  UNL1       -0.3308
     12 O          16.9775   70.8027   -2.2651 O.3     1  UNL1       -0.3794
     13 H          16.8064   68.6375   -3.8929 H       1  UNL1        0.2106
     14 H          16.6196   69.9086   -2.1843 H       1  UNL1        0.2105
     15 N          18.3004   71.0749   -6.6537 N.ar    1  UNL1       -0.2551
     16 C          17.3314   70.8026   -7.5449 C.ar    1  UNL1        0.3323
     17 N          17.6286   70.5163   -8.8263 N.ar    1  UNL1       -0.2743
     18 C          18.9128   70.4892   -9.2362 C.ar    1  UNL1        0.2626
     19 C          19.9433   70.7681   -8.3070 C.ar    1  UNL1        0.0795
     20 C          19.6167   71.0574   -7.0291 C.ar    1  UNL1        0.0869
     21 O          16.1684   70.8232   -7.1904 O.2     1  UNL1       -0.2464
     22 O          19.1830   70.2258  -10.3933 O.2     1  UNL1       -0.2670
     23 H          16.9167   70.3270   -9.4567 H       1  UNL1        0.1734
     24 O          23.0432   72.7337   -1.9803 O.3     1  UNL1       -0.2703
     25 P          23.4827   73.5811   -3.2757 P.3     1  UNL1        0.2208
     26 O          23.8500   72.6551   -4.3695 O.2     1  UNL1       -0.5170
     27 O          24.7485   74.5059   -2.9087 O.3     1  UNL1       -0.4371
     28 O          22.2588   74.5127   -3.7496 O.3     1  UNL1       -0.2865
     29 C          22.8173   75.5537   -4.5532 C.3     1  UNL1        0.2611
     30 C          21.8517   76.7397   -4.5859 C.3     1  UNL1        0.1582
     31 C          20.5075   76.2761   -5.1585 C.3     1  UNL1        0.1625
     32 C          20.7576   75.6015   -6.5115 C.3     1  UNL1        0.1686
     33 C          21.8037   74.4991   -6.3329 C.3     1  UNL1        0.1760
     34 O          19.6473   77.4033   -5.3335 O.3     1  UNL1       -0.3801
     35 O          19.5392   75.0324   -6.9942 O.3     1  UNL1       -0.3794
     36 O          23.0305   75.0679   -5.8768 O.3     1  UNL1       -0.3263
     37 H          18.8155   77.0667   -5.6942 H       1  UNL1        0.2105
     38 H          19.7416   74.6184   -7.8452 H       1  UNL1        0.2105
     39 C          20.6411   76.7876   -2.4725 C.2     1  UNL1        0.2231
     40 C          20.4401   77.3136   -1.0742 C.3     1  UNL1        0.0946
     41 N          21.6564   77.2499   -3.2273 N.am    1  UNL1       -0.2994
     42 O          19.8881   75.9485   -2.9187 O.2     1  UNL1       -0.2751
     43 H          22.2590   77.9217   -2.8706 H       1  UNL1        0.1496
     44 C          22.0369   73.7972   -7.6723 C.3     1  UNL1        0.1693
     45 O          22.8769   72.6583   -7.4738 O.3     1  UNL1       -0.3794
     46 H          22.9988   72.2462   -8.3398 H       1  UNL1        0.2105
@<TRIPOS>BOND
     1    29    30    1
     2    29    28    1
     3    29    36    1
     4    30    31    1
     5    30    41    1
     6    31    32    1
     7    31    34    1
     8    32    33    1
     9    32    35    1
    10    33    44    1
    11    33    36    1
    12    44    45    1
    13    39    40    1
    14    39    41   am
    15    39    42    2
    16    41    43    1
    17    28    25    1
    18    34    37    1
    19    35    38    1
    20    45    46    1
    21    15    16   ar
    22    15    20   ar
    23    15     6    1
    24    16    17   ar
    25    16    21    2
    26    17    18   ar
    27    17    23    1
    28    18    19   ar
    29    18    22    2
    30    19    20   ar
    31     6     7    1
    32     6    11    1
    33     7     8    1
    34     7     9    1
    35     8    13    1
    36     9    10    1
    37     9    12    1
    38    10    11    1
    39    10     5    1
    40    12    14    1
    41     5     4    1
    42     4     1    1
    43     1     2    2
    44     1     3    1
    45     1    24    1
    46    24    25    1
    47    25    26    2
    48    25    27    1
@<TRIPOS>MOLECULE
UD1
 46 48 0 0 0
SMALL
GASTEIGER

@<TRIPOS>ATOM
      1 P          21.9637   70.1972   -0.5405 P.3     1  UNL1        0.2189
      2 O          23.1948   70.9162   -0.9357 O.2     1  UNL1       -0.5170
      3 O          22.3570   68.8801    0.2979 O.3     1  UNL1       -0.4371
      4 O          21.1466   69.7681   -1.8600 O.3     1  UNL1       -0.3112
      5 C          21.0762   70.9233   -2.6972 C.3     1  UNL1        0.1811
      6 C          18.4586   70.8865   -5.1618 C.3     1  UNL1        0.2383
      7 C          18.3829   69.4905   -4.4943 C.3     1  UNL1        0.1895
      8 O          17.0438   68.9946   -4.4968 O.3     1  UNL1       -0.3779
      9 C          18.8579   69.7941   -3.0495 C.3     1  UNL1        0.1713
     10 C          19.6385   71.1161   -3.1821 C.3     1  UNL1        0.1764
     11 O          19.6363   71.4786   -4.5735 O.3     1  UNL1       -0.3308
     12 O          17.7368   69.9530   -2.1773 O.3     1  UNL1       -0.3794
     13 H          17.0655   68.1270   -4.0699 H       1  UNL1        0.2106
     14 H          17.2572   69.1139   -2.1834 H       1  UNL1        0.2105
     15 N          18.6131   70.7614   -6.6115 N.ar    1  UNL1       -0.2551
     16 C          17.5238   70.6346   -7.3892 C.ar    1  UNL1        0.3323
     17 N          17.6358   70.5217   -8.7260 N.ar    1  UNL1       -0.2743
     18 C          18.8518   70.5247   -9.3086 C.ar    1  UNL1        0.2626
     19 C          20.0072   70.6514   -8.5012 C.ar    1  UNL1        0.0795
     20 C          19.8657   70.7685   -7.1635 C.ar    1  UNL1        0.0869
     21 O          16.4203   70.6303   -6.8785 O.2     1  UNL1       -0.2464
     22 O          18.9545   70.4178  -10.5167 O.2     1  UNL1       -0.2670
     23 H          16.8392   70.4359   -9.2720 H       1  UNL1        0.1734
     24 O          21.0484   71.1594    0.3680 O.3     1  UNL1       -0.2703
     25 P          21.9695   71.6606    1.5885 P.3     1  UNL1        0.2208
     26 O          22.9436   70.6032    1.9377 O.2     1  UNL1       -0.5170
     27 O          21.0426   71.9785    2.8660 O.3     1  UNL1       -0.4371
     28 O          22.7584   72.9947    1.1545 O.3     1  UNL1       -0.2865
     29 C          22.0611   74.0968    1.7377 C.3     1  UNL1        0.2611
     30 C          21.5696   75.0278    0.6278 C.3     1  UNL1        0.1582
     31 C          22.7733   75.5180   -0.1849 C.3     1  UNL1        0.1625
     32 C          23.7962   76.1326    0.7765 C.3     1  UNL1        0.1686
     33 C          24.1220   75.1169    1.8736 C.3     1  UNL1        0.1760
     34 O          22.3456   76.5026   -1.1277 O.3     1  UNL1       -0.3801
     35 O          24.9874   76.4627    0.0598 O.3     1  UNL1       -0.3794
     36 O          22.9393   74.8058    2.6091 O.3     1  UNL1       -0.3263
     37 H          23.1322   76.7822   -1.6160 H       1  UNL1        0.2105
     38 H          25.6030   76.8449    0.7013 H       1  UNL1        0.2105
     39 C          19.3440   74.6341   -0.2809 C.2     1  UNL1        0.2231
     40 C          18.3964   73.8858   -1.1833 C.3     1  UNL1        0.0946
     41 N          20.6488   74.3014   -0.2490 N.am    1  UNL1       -0.2994
     42 O          18.9316   75.5357    0.4172 O.2     1  UNL1       -0.2751
     43 H          20.9790   73.5798   -0.8074 H       1  UNL1        0.1496
     44 C          25.1674   75.7091    2.8209 C.3     1  UNL1        0.1693
     45 O          25.3304   74.8478    3.9495 O.3     1  UNL1       -0.3794
     46 H          25.9955   75.2566    4.5197 H       1  UNL1        0.2105
@<TRIPOS>BOND
     1    29    30    1
     2    29    28    1
     3    29    36    1
     4    30    31    1
     5    30    41    1
     6    31    32    1
     7    31    34    1
     8    32    33    1
     9    32    35    1
    10    33    44    1
    11    33    36    1
    12    44    45    1
    13    39    40    1
    14    39    41   am
    15    39    42    2
    16    41    43    1
    17    28    25    1
    18    34    37    1
    19    35    38    1
    20    45    46    1
    21    15    16   ar
    22    15    20   ar
    23    15     6    1
    24    16    17   ar
    25    16    21    2
    26    17    18   ar
    27    17    23    1
    28    18    19   ar
    29    18    22    2
    30    19    20   ar
    31     6     7    1
    32     6    11    1
    33     7     8    1
    34     7     9    1
    35     8    13    1
    36     9    10    1
    37     9    12    1
    38    10    11    1
    39    10     5    1
    40    12    14    1
    41     5     4    1
    42     4     1    1
    43     1     2    2
    44     1     3    1
    45     1    24    1
    46    24    25    1
    47    25    26    2
    48    25    27    1
@<TRIPOS>MOLECULE
UD1
 46 48 0 0 0
SMALL
GASTEIGER

@<TRIPOS>ATOM
      1 P          21.8419   70.8043   -0.4087 P.3     1  UNL1        0.2189
      2 O          21.5517   69.5855    0.3782 O.2     1  UNL1       -0.5170
      3 O          23.0286   70.4989   -1.4532 O.3     1  UNL1       -0.4371
      4 O          22.2940   71.9885    0.5844 O.3     1  UNL1       -0.3112
      5 C          22.2109   71.4693    1.9125 C.3     1  UNL1        0.1811
      6 C          23.0854   74.5007    3.6367 C.3     1  UNL1        0.2383
      7 C          22.2977   74.9764    2.3903 C.3     1  UNL1        0.1895
      8 O          21.5942   76.1890    2.6624 O.3     1  UNL1       -0.3779
      9 C          21.3099   73.8029    2.1619 C.3     1  UNL1        0.1713
     10 C          21.9635   72.6153    2.8946 C.3     1  UNL1        0.1764
     11 O          23.2146   73.0778    3.4315 O.3     1  UNL1       -0.3308
     12 O          20.0329   74.1065    2.7276 O.3     1  UNL1       -0.3794
     13 H          21.1274   76.4303    1.8504 H       1  UNL1        0.2106
     14 H          19.7040   74.8914    2.2694 H       1  UNL1        0.2105
     15 N          24.4025   75.1359    3.6923 N.ar    1  UNL1       -0.2551
     16 C          24.9363   75.4598    4.8829 C.ar    1  UNL1        0.3323
     17 N          26.1477   76.0412    4.9643 N.ar    1  UNL1       -0.2743
     18 C          26.8452   76.3180    3.8441 C.ar    1  UNL1        0.2626
     19 C          26.2925   75.9878    2.5838 C.ar    1  UNL1        0.0795
     20 C          25.0778   75.4003    2.5313 C.ar    1  UNL1        0.0869
     21 O          24.3195   75.2164    5.9022 O.2     1  UNL1       -0.2464
     22 O          27.9385   76.8481    3.9163 O.2     1  UNL1       -0.2670
     23 H          26.5195   76.2637    5.8317 H       1  UNL1        0.1734
     24 O          20.5213   71.2521   -1.2113 O.3     1  UNL1       -0.2703
     25 P          20.7082   70.7526   -2.7295 P.3     1  UNL1        0.2208
     26 O          21.2031   69.3584   -2.7325 O.2     1  UNL1       -0.5170
     27 O          21.7715   71.7004   -3.4800 O.3     1  UNL1       -0.4371
     28 O          19.2948   70.8219   -3.4964 O.3     1  UNL1       -0.2865
     29 C          19.2302   72.0998   -4.1318 C.3     1  UNL1        0.2611
     30 C          17.8234   72.6767   -3.9642 C.3     1  UNL1        0.1582
     31 C          16.8084   71.7112   -4.5863 C.3     1  UNL1        0.1625
     32 C          17.2274   71.4240   -6.0320 C.3     1  UNL1        0.1686
     33 C          18.6784   70.9387   -6.0433 C.3     1  UNL1        0.1760
     34 O          15.5094   72.3060   -4.5698 O.3     1  UNL1       -0.3801
     35 O          16.3800   70.4145   -6.5837 O.3     1  UNL1       -0.3794
     36 O          19.5310   71.9555   -5.5182 O.3     1  UNL1       -0.3263
     37 H          14.9040   71.6660   -4.9690 H       1  UNL1        0.2105
     38 H          16.6784   70.2644   -7.4919 H       1  UNL1        0.2105
     39 C          17.2019   74.0606   -2.0582 C.2     1  UNL1        0.2231
     40 C          16.9004   74.2346   -0.5916 C.3     1  UNL1        0.0946
     41 N          17.5300   72.8462   -2.5396 N.am    1  UNL1       -0.2994
     42 O          17.1499   75.0143   -2.8052 O.2     1  UNL1       -0.2751
     43 H          17.5719   72.0828   -1.9420 H       1  UNL1        0.1496
     44 C          19.0965   70.6180   -7.4798 C.3     1  UNL1        0.1693
     45 O          18.3605   71.4424   -8.3858 O.3     1  UNL1       -0.3794
     46 H          18.6530   71.2090   -9.2772 H       1  UNL1        0.2105
@<TRIPOS>BOND
     1    29    30    1
     2    29    28    1
     3    29    36    1
     4    30    31    1
     5    30    41    1
     6    31    32    1
     7    31    34    1
     8    32    33    1
     9    32    35    1
    10    33    44    1
    11    33    36    1
    12    44    45    1
    13    39    40    1
    14    39    41   am
    15    39    42    2
    16    41    43    1
    17    28    25    1
    18    34    37    1
    19    35    38    1
    20    45    46    1
    21    15    16   ar
    22    15    20   ar
    23    15     6    1
    24    16    17   ar
    25    16    21    2
    26    17    18   ar
    27    17    23    1
    28    18    19   ar
    29    18    22    2
    30    19    20   ar
    31     6     7    1
    32     6    11    1
    33     7     8    1
    34     7     9    1
    35     8    13    1
    36     9    10    1
    37     9    12    1
    38    10    11    1
    39    10     5    1
    40    12    14    1
    41     5     4    1
    42     4     1    1
    43     1     2    2
    44     1     3    1
    45     1    24    1
    46    24    25    1
    47    25    26    2
    48    25    27    1
@<TRIPOS>MOLECULE
UD1
 46 48 0 0 0
SMALL
GASTEIGER

@<TRIPOS>ATOM
      1 P          21.7607   70.7340   -0.5727 P.3     1  UNL1        0.2189
      2 O          20.7733   69.7397   -1.0472 O.2     1  UNL1       -0.5170
      3 O          23.2369   70.0935   -0.6291 O.3     1  UNL1       -0.4371
      4 O          21.4153   71.1510    0.9437 O.3     1  UNL1       -0.3112
      5 C          22.4698   72.0058    1.3883 C.3     1  UNL1        0.1811
      6 C          22.9901   73.9550    4.3644 C.3     1  UNL1        0.2383
      7 C          21.7208   74.5645    3.7182 C.3     1  UNL1        0.1895
      8 O          20.8422   75.0897    4.7139 O.3     1  UNL1       -0.3779
      9 C          21.0896   73.3338    3.0166 C.3     1  UNL1        0.1713
     10 C          22.2631   72.3467    2.8649 C.3     1  UNL1        0.1764
     11 O          23.4373   72.9917    3.3869 O.3     1  UNL1       -0.3308
     12 O          20.0558   72.7713    3.8275 O.3     1  UNL1       -0.3794
     13 H          20.0761   75.4527    4.2482 H       1  UNL1        0.2106
     14 H          19.3815   73.4554    3.9346 H       1  UNL1        0.2105
     15 N          24.0087   74.9835    4.5789 N.ar    1  UNL1       -0.2551
     16 C          24.0438   75.6538    5.7438 C.ar    1  UNL1        0.3323
     17 N          24.9720   76.6022    5.9701 N.ar    1  UNL1       -0.2743
     18 C          25.8816   76.9028    5.0213 C.ar    1  UNL1        0.2626
     19 C          25.8524   76.2091    3.7881 C.ar    1  UNL1        0.0795
     20 C          24.9139   75.2588    3.5896 C.ar    1  UNL1        0.0869
     21 O          23.2302   75.3939    6.6093 O.2     1  UNL1       -0.2464
     22 O          26.7183   77.7635    5.2230 O.2     1  UNL1       -0.2670
     23 H          24.9856   77.0724    6.8180 H       1  UNL1        0.1734
     24 O          21.7041   72.0379   -1.5138 O.3     1  UNL1       -0.2703
     25 P          21.8492   71.5226   -3.0313 P.3     1  UNL1        0.2208
     26 O          21.7084   70.0503   -3.0677 O.2     1  UNL1       -0.5170
     27 O          23.2959   71.9370   -3.6035 O.3     1  UNL1       -0.4371
     28 O          20.7023   72.1939   -3.9392 O.3     1  UNL1       -0.2865
     29 C          20.4089   71.2686   -4.9875 C.3     1  UNL1        0.2611
     30 C          20.0612   72.0416   -6.2609 C.3     1  UNL1        0.1582
     31 C          18.8551   72.9464   -5.9845 C.3     1  UNL1        0.1625
     32 C          17.7210   72.0898   -5.4116 C.3     1  UNL1        0.1686
     33 C          18.2445   71.3154   -4.2002 C.3     1  UNL1        0.1760
     34 O          18.4280   73.5601   -7.2020 O.3     1  UNL1       -0.3801
     35 O          16.6404   72.9341   -5.0103 O.3     1  UNL1       -0.3794
     36 O          19.3060   70.4507   -4.6028 O.3     1  UNL1       -0.3263
     37 H          17.6699   74.1189   -6.9822 H       1  UNL1        0.2105
     38 H          15.9503   72.3557   -4.6558 H       1  UNL1        0.2105
     39 C          21.5022   73.0084   -7.9707 C.2     1  UNL1        0.2231
     40 C          22.6812   73.8508   -8.3862 C.3     1  UNL1        0.0946
     41 N          21.2062   72.8603   -6.6650 N.am    1  UNL1       -0.2994
     42 O          20.8202   72.4631   -8.8119 O.2     1  UNL1       -0.2751
     43 H          21.7520   73.2963   -5.9916 H       1  UNL1        0.1496
     44 C          17.1105   70.4813   -3.6007 C.3     1  UNL1        0.1693
     45 O          16.8168   69.3833   -4.4670 O.3     1  UNL1       -0.3794
     46 H          16.0989   68.8850   -4.0537 H       1  UNL1        0.2105
@<TRIPOS>BOND
     1    29    30    1
     2    29    28    1
     3    29    36    1
     4    30    31    1
     5    30    41    1
     6    31    32    1
     7    31    34    1
     8    32    33    1
     9    32    35    1
    10    33    44    1
    11    33    36    1
    12    44    45    1
    13    39    40    1
    14    39    41   am
    15    39    42    2
    16    41    43    1
    17    28    25    1
    18    34    37    1
    19    35    38    1
    20    45    46    1
    21    15    16   ar
    22    15    20   ar
    23    15     6    1
    24    16    17   ar
    25    16    21    2
    26    17    18   ar
    27    17    23    1
    28    18    19   ar
    29    18    22    2
    30    19    20   ar
    31     6     7    1
    32     6    11    1
    33     7     8    1
    34     7     9    1
    35     8    13    1
    36     9    10    1
    37     9    12    1
    38    10    11    1
    39    10     5    1
    40    12    14    1
    41     5     4    1
    42     4     1    1
    43     1     2    2
    44     1     3    1
    45     1    24    1
    46    24    25    1
    47    25    26    2
    48    25    27    1
@<TRIPOS>MOLECULE
UD1
 46 48 0 0 0
SMALL
GASTEIGER

@<TRIPOS>ATOM
      1 P          21.9281   70.4418   -0.2930 P.3     1  UNL1        0.2189
      2 O          22.7349   71.5165   -0.9118 O.2     1  UNL1       -0.5170
      3 O          22.8848   69.2040    0.0879 O.3     1  UNL1       -0.4371
      4 O          20.8033   69.9487   -1.3344 O.3     1  UNL1       -0.3112
      5 C          20.9488   70.7474   -2.5097 C.3     1  UNL1        0.1811
      6 C          18.4065   71.0528   -5.0338 C.3     1  UNL1        0.2383
      7 C          18.1063   69.6993   -4.3422 C.3     1  UNL1        0.1895
      8 O          16.7078   69.4119   -4.3668 O.3     1  UNL1       -0.3779
      9 C          18.5924   69.9594   -2.8927 C.3     1  UNL1        0.1713
     10 C          19.5672   71.1448   -3.0317 C.3     1  UNL1        0.1764
     11 O          19.6482   71.4727   -4.4293 O.3     1  UNL1       -0.3308
     12 O          17.4910   70.3053   -2.0501 O.3     1  UNL1       -0.3794
     13 H          16.5889   68.5606   -3.9234 H       1  UNL1        0.2106
     14 H          16.8898   69.5485   -2.0517 H       1  UNL1        0.2105
     15 N          18.5697   70.8738   -6.4770 N.ar    1  UNL1       -0.2551
     16 C          17.4849   70.8319   -7.2700 C.ar    1  UNL1        0.3323
     17 N          17.6053   70.6722   -8.6013 N.ar    1  UNL1       -0.2743
     18 C          18.8243   70.5416   -9.1625 C.ar    1  UNL1        0.2626
     19 C          19.9744   70.5779   -8.3386 C.ar    1  UNL1        0.0795
     20 C          19.8252   70.7446   -7.0069 C.ar    1  UNL1        0.0869
     21 O          16.3787   70.9483   -6.7787 O.2     1  UNL1       -0.2464
     22 O          18.9341   70.3924  -10.3654 O.2     1  UNL1       -0.2670
     23 H          16.8123   70.6490   -9.1588 H       1  UNL1        0.1734
     24 O          21.2183   71.0021    1.0378 O.3     1  UNL1       -0.2703
     25 P          21.6053   72.5600    1.1504 P.3     1  UNL1        0.2208
     26 O          20.5781   73.3741    0.4643 O.2     1  UNL1       -0.5170
     27 O          23.0373   72.8093    0.4579 O.3     1  UNL1       -0.4371
     28 O          21.6794   72.9851    2.7010 O.3     1  UNL1       -0.2865
     29 C          21.4368   74.3919    2.7571 C.3     1  UNL1        0.2611
     30 C          22.6564   75.0911    3.3602 C.3     1  UNL1        0.1582
     31 C          22.9129   74.5299    4.7633 C.3     1  UNL1        0.1625
     32 C          21.6228   74.6477    5.5818 C.3     1  UNL1        0.1686
     33 C          20.4817   73.9791    4.8123 C.3     1  UNL1        0.1760
     34 O          23.9544   75.2768    5.3947 O.3     1  UNL1       -0.3801
     35 O          21.7958   73.9983    6.8427 O.3     1  UNL1       -0.3794
     36 O          20.2881   74.6429    3.5639 O.3     1  UNL1       -0.3263
     37 H          24.0827   74.8907    6.2721 H       1  UNL1        0.2105
     38 H          20.9619   74.0954    7.3241 H       1  UNL1        0.2105
     39 C          24.6737   75.8594    2.2313 C.2     1  UNL1        0.2231
     40 C          25.8784   75.6115    1.3598 C.3     1  UNL1        0.0946
     41 N          23.8271   74.8507    2.5140 N.am    1  UNL1       -0.2994
     42 O          24.4660   76.9675    2.6777 O.2     1  UNL1       -0.2751
     43 H          23.9930   73.9639    2.1567 H       1  UNL1        0.1496
     44 C          19.1950   74.0628    5.6361 C.3     1  UNL1        0.1693
     45 O          18.4204   72.8794    5.4319 O.3     1  UNL1       -0.3794
     46 H          17.6206   72.9727    5.9670 H       1  UNL1        0.2105
@<TRIPOS>BOND
     1    29    30    1
     2    29    28    1
     3    29    36    1
     4    30    31    1
     5    30    41    1
     6    31    32    1
     7    31    34    1
     8    32    33    1
     9    32    35    1
    10    33    44    1
    11    33    36    1
    12    44    45    1
    13    39    40    1
    14    39    41   am
    15    39    42    2
    16    41    43    1
    17    28    25    1
    18    34    37    1
    19    35    38    1
    20    45    46    1
    21    15    16   ar
    22    15    20   ar
    23    15     6    1
    24    16    17   ar
    25    16    21    2
    26    17    18   ar
    27    17    23    1
    28    18    19   ar
    29    18    22    2
    30    19    20   ar
    31     6     7    1
    32     6    11    1
    33     7     8    1
    34     7     9    1
    35     8    13    1
    36     9    10    1
    37     9    12    1
    38    10    11    1
    39    10     5    1
    40    12    14    1
    41     5     4    1
    42     4     1    1
    43     1     2    2
    44     1     3    1
    45     1    24    1
    46    24    25    1
    47    25    26    2
    48    25    27    1
@<TRIPOS>MOLECULE
UD1
 46 48 0 0 0
SMALL
GASTEIGER

@<TRIPOS>ATOM
      1 P          20.2306   70.2847   -2.5540 P.3     1  UNL1        0.2189
      2 O          21.4762   69.5809   -2.9304 O.2     1  UNL1       -0.5170
      3 O          19.1199   69.2082   -2.1069 O.3     1  UNL1       -0.4371
      4 O          19.6862   71.1233   -3.8163 O.3     1  UNL1       -0.3112
      5 C          18.3686   70.6462   -4.0930 C.3     1  UNL1        0.1811
      6 C          18.5522   72.5182   -7.1571 C.3     1  UNL1        0.2383
      7 C          18.3262   71.0539   -7.6098 C.3     1  UNL1        0.1895
      8 O          17.5952   71.0048   -8.8355 O.3     1  UNL1       -0.3779
      9 C          17.4857   70.4777   -6.4407 C.3     1  UNL1        0.1713
     10 C          17.7769   71.4304   -5.2652 C.3     1  UNL1        0.1764
     11 O          18.7250   72.4070   -5.7283 O.3     1  UNL1       -0.3308
     12 O          16.0951   70.4901   -6.7707 O.3     1  UNL1       -0.3794
     13 H          17.4893   70.0703   -9.0613 H       1  UNL1        0.2106
     14 H          15.9873   69.9249   -7.5472 H       1  UNL1        0.2105
     15 N          19.7533   73.0751   -7.7805 N.ar    1  UNL1       -0.2551
     16 C          20.6942   72.2489   -8.2698 C.ar    1  UNL1        0.3323
     17 N          21.8072   72.7333   -8.8520 N.ar    1  UNL1       -0.2743
     18 C          22.0008   74.0643   -8.9455 C.ar    1  UNL1        0.2626
     19 C          21.0211   74.9455   -8.4292 C.ar    1  UNL1        0.0795
     20 C          19.9117   74.4327   -7.8551 C.ar    1  UNL1        0.0869
     21 O          20.5339   71.0460   -8.1930 O.2     1  UNL1       -0.2464
     22 O          23.0090   74.5033   -9.4674 O.2     1  UNL1       -0.2670
     23 H          22.4733   72.1227   -9.2037 H       1  UNL1        0.1734
     24 O          20.5293   71.2880   -1.3321 O.3     1  UNL1       -0.2703
     25 P          21.8758   70.7672   -0.6215 P.3     1  UNL1        0.2208
     26 O          22.9052   70.5010   -1.6503 O.2     1  UNL1       -0.5170
     27 O          21.5656   69.4113    0.1895 O.3     1  UNL1       -0.4371
     28 O          22.4145   71.8896    0.3986 O.3     1  UNL1       -0.2865
     29 C          21.2940   72.7044    0.7477 C.3     1  UNL1        0.2611
     30 C          21.5800   74.1535    0.3497 C.3     1  UNL1        0.1582
     31 C          22.8435   74.6321    1.0736 C.3     1  UNL1        0.1625
     32 C          22.6682   74.3911    2.5767 C.3     1  UNL1        0.1686
     33 C          22.3032   72.9231    2.8069 C.3     1  UNL1        0.1760
     34 O          23.0370   76.0263    0.8281 O.3     1  UNL1       -0.3801
     35 O          23.8891   74.6934    3.2548 O.3     1  UNL1       -0.3794
     36 O          21.0699   72.6249    2.1537 O.3     1  UNL1       -0.3263
     37 H          23.8404   76.2843    1.3006 H       1  UNL1        0.2105
     38 H          23.7350   74.5277    4.1957 H       1  UNL1        0.2105
     39 C          23.0314   74.2028   -1.6060 C.2     1  UNL1        0.2231
     40 C          23.2413   74.2849   -3.0965 C.3     1  UNL1        0.0946
     41 N          21.7843   74.2327   -1.0981 N.am    1  UNL1       -0.2994
     42 O          23.9856   74.1104   -0.8636 O.2     1  UNL1       -0.2751
     43 H          21.0205   74.3069   -1.6920 H       1  UNL1        0.1496
     44 C          22.1577   72.6643    4.3079 C.3     1  UNL1        0.1693
     45 O          20.8296   72.9916    4.7215 O.3     1  UNL1       -0.3794
     46 H          20.7806   72.8149    5.6708 H       1  UNL1        0.2105
@<TRIPOS>BOND
     1    29    30    1
     2    29    28    1
     3    29    36    1
     4    30    31    1
     5    30    41    1
     6    31    32    1
     7    31    34    1
     8    32    33    1
     9    32    35    1
    10    33    44    1
    11    33    36    1
    12    44    45    1
    13    39    40    1
    14    39    41   am
    15    39    42    2
    16    41    43    1
    17    28    25    1
    18    34    37    1
    19    35    38    1
    20    45    46    1
    21    15    16   ar
    22    15    20   ar
    23    15     6    1
    24    16    17   ar
    25    16    21    2
    26    17    18   ar
    27    17    23    1
    28    18    19   ar
    29    18    22    2
    30    19    20   ar
    31     6     7    1
    32     6    11    1
    33     7     8    1
    34     7     9    1
    35     8    13    1
    36     9    10    1
    37     9    12    1
    38    10    11    1
    39    10     5    1
    40    12    14    1
    41     5     4    1
    42     4     1    1
    43     1     2    2
    44     1     3    1
    45     1    24    1
    46    24    25    1
    47    25    26    2
    48    25    27    1
@<TRIPOS>MOLECULE
UD1
 46 48 0 0 0
SMALL
GASTEIGER

@<TRIPOS>ATOM
      1 P          20.0207   73.3199   -3.8735 P.3     1  UNL1        0.2189
      2 O          19.7026   74.3090   -4.9267 O.2     1  UNL1       -0.5170
      3 O          18.6877   72.9788   -3.0373 O.3     1  UNL1       -0.4371
      4 O          21.1330   73.9310   -2.8825 O.3     1  UNL1       -0.3112
      5 C          20.8167   73.4673   -1.5690 C.3     1  UNL1        0.1811
      6 C          22.8651   72.4542    1.2068 C.3     1  UNL1        0.2383
      7 C          22.0406   71.1916    0.8516 C.3     1  UNL1        0.1895
      8 O          22.7733   70.0024    1.1485 O.3     1  UNL1       -0.3779
      9 C          21.8421   71.3519   -0.6781 C.3     1  UNL1        0.1713
     10 C          22.0640   72.8560   -0.9288 C.3     1  UNL1        0.1764
     11 O          22.3109   73.4723    0.3466 O.3     1  UNL1       -0.3308
     12 O          22.8038   70.5719   -1.3918 O.3     1  UNL1       -0.3794
     13 H          22.2071   69.2566    0.9062 H       1  UNL1        0.2106
     14 H          22.6518   69.6493   -1.1476 H       1  UNL1        0.2105
     15 N          22.6850   72.8133    2.6139 N.ar    1  UNL1       -0.2551
     16 C          21.5630   72.4462    3.2570 C.ar    1  UNL1        0.3323
     17 N          21.3723   72.7594    4.5522 N.ar    1  UNL1       -0.2743
     18 C          22.3067   73.4592    5.2267 C.ar    1  UNL1        0.2626
     19 C          23.4901   73.8573    4.5603 C.ar    1  UNL1        0.0795
     20 C          23.6580   73.5252    3.2623 C.ar    1  UNL1        0.0869
     21 O          20.7110   71.8145    2.6622 O.2     1  UNL1       -0.2464
     22 O          22.1333   73.7471    6.3965 O.2     1  UNL1       -0.2670
     23 H          20.5590   72.4823    5.0016 H       1  UNL1        0.1734
     24 O          20.5878   71.9762   -4.5529 O.3     1  UNL1       -0.2703
     25 P          19.3100   71.1104   -5.0080 P.3     1  UNL1        0.2208
     26 O          18.7152   70.4500   -3.8253 O.2     1  UNL1       -0.5170
     27 O          19.7696   69.9924   -6.0715 O.3     1  UNL1       -0.4371
     28 O          18.2185   72.0787   -5.6874 O.3     1  UNL1       -0.2865
     29 C          17.0232   71.3117   -5.8421 C.3     1  UNL1        0.2611
     30 C          16.5149   71.4527   -7.2779 C.3     1  UNL1        0.1582
     31 C          16.2496   72.9333   -7.5727 C.3     1  UNL1        0.1625
     32 C          15.3149   73.4882   -6.4926 C.3     1  UNL1        0.1686
     33 C          15.9154   73.1963   -5.1159 C.3     1  UNL1        0.1760
     34 O          15.6348   73.0635   -8.8558 O.3     1  UNL1       -0.3801
     35 O          15.1717   74.8996   -6.6637 O.3     1  UNL1       -0.3794
     36 O          16.0343   71.7863   -4.9309 O.3     1  UNL1       -0.3263
     37 H          15.4865   74.0082   -9.0000 H       1  UNL1        0.2105
     38 H          14.5776   75.2072   -5.9644 H       1  UNL1        0.2105
     39 C          18.3983   71.7857   -8.7866 C.2     1  UNL1        0.2231
     40 C          19.4366   71.2582   -9.7436 C.3     1  UNL1        0.0946
     41 N          17.5240   70.9406   -8.2074 N.am    1  UNL1       -0.2994
     42 O          18.3495   72.9715   -8.5383 O.2     1  UNL1       -0.2751
     43 H          17.5627   69.9916   -8.4061 H       1  UNL1        0.1496
     44 C          15.0052   73.7753   -4.0307 C.3     1  UNL1        0.1693
     45 O          13.6419   73.6702   -4.4459 O.3     1  UNL1       -0.3794
     46 H          13.1035   74.0454   -3.7360 H       1  UNL1        0.2105
@<TRIPOS>BOND
     1    29    30    1
     2    29    28    1
     3    29    36    1
     4    30    31    1
     5    30    41    1
     6    31    32    1
     7    31    34    1
     8    32    33    1
     9    32    35    1
    10    33    44    1
    11    33    36    1
    12    44    45    1
    13    39    40    1
    14    39    41   am
    15    39    42    2
    16    41    43    1
    17    28    25    1
    18    34    37    1
    19    35    38    1
    20    45    46    1
    21    15    16   ar
    22    15    20   ar
    23    15     6    1
    24    16    17   ar
    25    16    21    2
    26    17    18   ar
    27    17    23    1
    28    18    19   ar
    29    18    22    2
    30    19    20   ar
    31     6     7    1
    32     6    11    1
    33     7     8    1
    34     7     9    1
    35     8    13    1
    36     9    10    1
    37     9    12    1
    38    10    11    1
    39    10     5    1
    40    12    14    1
    41     5     4    1
    42     4     1    1
    43     1     2    2
    44     1     3    1
    45     1    24    1
    46    24    25    1
    47    25    26    2
    48    25    27    1
@<TRIPOS>MOLECULE
UD1
 46 48 0 0 0
SMALL
GASTEIGER

@<TRIPOS>ATOM
      1 P          21.4324   70.9139   -1.9762 P.3     1  UNL1        0.2189
      2 O          21.0245   70.0156   -0.8737 O.2     1  UNL1       -0.5170
      3 O          22.9440   70.5739   -2.4142 O.3     1  UNL1       -0.4371
      4 O          21.3498   72.4435   -1.4797 O.3     1  UNL1       -0.3112
      5 C          22.5385   72.7003   -0.7305 C.3     1  UNL1        0.1811
      6 C          22.5285   75.0710    1.9726 C.3     1  UNL1        0.2383
      7 C          24.0136   74.9811    1.5406 C.3     1  UNL1        0.1895
      8 O          24.6860   76.2215    1.7610 O.3     1  UNL1       -0.3779
      9 C          23.8939   74.6784    0.0242 C.3     1  UNL1        0.1713
     10 C          22.4717   74.1062   -0.1322 C.3     1  UNL1        0.1764
     11 O          21.8838   74.0522    1.1788 O.3     1  UNL1       -0.3308
     12 O          24.0444   75.8776   -0.7387 O.3     1  UNL1       -0.3794
     13 H          25.6013   76.0989    1.4735 H       1  UNL1        0.2106
     14 H          24.9296   76.2179   -0.5525 H       1  UNL1        0.2105
     15 N          22.3843   74.7816    3.3997 N.ar    1  UNL1       -0.2551
     16 C          21.4642   75.4422    4.1239 C.ar    1  UNL1        0.3323
     17 N          21.3069   75.1937    5.4376 N.ar    1  UNL1       -0.2743
     18 C          22.0818   74.2782    6.0535 C.ar    1  UNL1        0.2626
     19 C          23.0585   73.5797    5.3043 C.ar    1  UNL1        0.0795
     20 C          23.1914   73.8448    3.9870 C.ar    1  UNL1        0.0869
     21 O          20.7577   76.2708    3.5827 O.2     1  UNL1       -0.2464
     22 O          21.9437   74.0561    7.2422 O.2     1  UNL1       -0.2670
     23 H          20.6350   75.6761    5.9435 H       1  UNL1        0.1734
     24 O          20.4485   70.7036   -3.2318 O.3     1  UNL1       -0.2703
     25 P          20.7771   71.8780   -4.2817 P.3     1  UNL1        0.2208
     26 O          22.2431   72.0115   -4.4293 O.2     1  UNL1       -0.5170
     27 O          20.1639   73.2663   -3.7443 O.3     1  UNL1       -0.4371
     28 O          20.1243   71.5216   -5.7090 O.3     1  UNL1       -0.2865
     29 C          19.1946   72.5634   -6.0113 C.3     1  UNL1        0.2611
     30 C          17.7698   72.0374   -5.8283 C.3     1  UNL1        0.1582
     31 C          17.5562   70.8357   -6.7555 C.3     1  UNL1        0.1625
     32 C          17.9199   71.2491   -8.1855 C.3     1  UNL1        0.1686
     33 C          19.3348   71.8317   -8.1911 C.3     1  UNL1        0.1760
     34 O          16.1874   70.4290   -6.7046 O.3     1  UNL1       -0.3801
     35 O          17.8689   70.1059   -9.0411 O.3     1  UNL1       -0.3794
     36 O          19.3825   72.9900   -7.3589 O.3     1  UNL1       -0.3263
     37 H          16.0984   69.6725   -7.3006 H       1  UNL1        0.2105
     38 H          18.1049   70.4102   -9.9289 H       1  UNL1        0.2105
     39 C          16.7436   72.3195   -3.6371 C.2     1  UNL1        0.2231
     40 C          16.5437   71.8942   -2.2048 C.3     1  UNL1        0.0946
     41 N          17.5750   71.6244   -4.4370 N.am    1  UNL1       -0.2994
     42 O          16.1562   73.2881   -4.0695 O.2     1  UNL1       -0.2751
     43 H          18.0453   70.8493   -4.0912 H       1  UNL1        0.1496
     44 C          19.7202   72.2180   -9.6206 C.3     1  UNL1        0.1693
     45 O          18.5368   72.4487  -10.3877 O.3     1  UNL1       -0.3794
     46 H          18.8236   72.6885  -11.2792 H       1  UNL1        0.2105
@<TRIPOS>BOND
     1    29    30    1
     2    29    28    1
     3    29    36    1
     4    30    31    1
     5    30    41    1
     6    31    32    1
     7    31    34    1
     8    32    33    1
     9    32    35    1
    10    33    44    1
    11    33    36    1
    12    44    45    1
    13    39    40    1
    14    39    41   am
    15    39    42    2
    16    41    43    1
    17    28    25    1
    18    34    37    1
    19    35    38    1
    20    45    46    1
    21    15    16   ar
    22    15    20   ar
    23    15     6    1
    24    16    17   ar
    25    16    21    2
    26    17    18   ar
    27    17    23    1
    28    18    19   ar
    29    18    22    2
    30    19    20   ar
    31     6     7    1
    32     6    11    1
    33     7     8    1
    34     7     9    1
    35     8    13    1
    36     9    10    1
    37     9    12    1
    38    10    11    1
    39    10     5    1
    40    12    14    1
    41     5     4    1
    42     4     1    1
    43     1     2    2
    44     1     3    1
    45     1    24    1
    46    24    25    1
    47    25    26    2
    48    25    27    1
@<TRIPOS>MOLECULE
UD1
 46 48 0 0 0
SMALL
GASTEIGER

@<TRIPOS>ATOM
      1 P          19.0695   70.2592   -3.4378 P.3     1  UNL1        0.2189
      2 O          18.8012   69.1224   -2.5298 O.2     1  UNL1       -0.5170
      3 O          18.6487   71.6348   -2.7143 O.3     1  UNL1       -0.4371
      4 O          18.2117   70.0804   -4.7887 O.3     1  UNL1       -0.3112
      5 C          17.1771   71.0647   -4.7555 C.3     1  UNL1        0.1811
      6 C          18.5164   72.6179   -7.7087 C.3     1  UNL1        0.2383
      7 C          18.3756   71.1220   -8.0866 C.3     1  UNL1        0.1895
      8 O          18.1113   70.9700   -9.4817 O.3     1  UNL1       -0.3779
      9 C          17.1510   70.6862   -7.2406 C.3     1  UNL1        0.1713
     10 C          17.0734   71.7433   -6.1222 C.3     1  UNL1        0.1764
     11 O          18.1784   72.6448   -6.3056 O.3     1  UNL1       -0.3308
     12 O          15.9631   70.7011   -8.0353 O.3     1  UNL1       -0.3794
     13 H          18.0355   70.0207   -9.6507 H       1  UNL1        0.2106
     14 H          16.0973   70.0645   -8.7500 H       1  UNL1        0.2105
     15 N          19.8892   73.0795   -7.9178 N.ar    1  UNL1       -0.2551
     16 C          20.9153   72.2384   -7.7011 C.ar    1  UNL1        0.3323
     17 N          22.1880   72.6346   -7.8892 N.ar    1  UNL1       -0.2743
     18 C          22.4553   73.8933   -8.2920 C.ar    1  UNL1        0.2626
     19 C          21.3848   74.7910   -8.5181 C.ar    1  UNL1        0.0795
     20 C          20.1176   74.3657   -8.3268 C.ar    1  UNL1        0.0869
     21 O          20.6903   71.1000   -7.3377 O.2     1  UNL1       -0.2464
     22 O          23.6058   74.2541   -8.4578 O.2     1  UNL1       -0.2670
     23 H          22.9157   72.0132   -7.7327 H       1  UNL1        0.1734
     24 O          20.6369   70.2993   -3.7989 O.3     1  UNL1       -0.2703
     25 P          21.4160   70.6882   -2.4457 P.3     1  UNL1        0.2208
     26 O          22.8513   70.3603   -2.5914 O.2     1  UNL1       -0.5170
     27 O          20.7988   69.8571   -1.2126 O.3     1  UNL1       -0.4371
     28 O          21.2516   72.2644   -2.1644 O.3     1  UNL1       -0.2865
     29 C          22.5338   72.7496   -1.7624 C.3     1  UNL1        0.2611
     30 C          22.3757   73.6207   -0.5148 C.3     1  UNL1        0.1582
     31 C          21.4318   74.7856   -0.8333 C.3     1  UNL1        0.1625
     32 C          21.9547   75.5146   -2.0755 C.3     1  UNL1        0.1686
     33 C          22.1417   74.5010   -3.2064 C.3     1  UNL1        0.1760
     34 O          21.3934   75.6873    0.2744 O.3     1  UNL1       -0.3801
     35 O          21.0130   76.5117   -2.4764 O.3     1  UNL1       -0.3794
     36 O          23.1023   73.5190   -2.8198 O.3     1  UNL1       -0.3263
     37 H          20.7894   76.4025    0.0317 H       1  UNL1        0.2105
     38 H          21.3804   76.9446   -3.2600 H       1  UNL1        0.2105
     39 C          22.2698   72.9782    1.8326 C.2     1  UNL1        0.2231
     40 C          21.6928   72.1522    2.9537 C.3     1  UNL1        0.0946
     41 N          21.8152   72.8188    0.5747 N.am    1  UNL1       -0.2994
     42 O          23.1441   73.7862    2.0627 O.2     1  UNL1       -0.2751
     43 H          21.1157   72.1721    0.3903 H       1  UNL1        0.1496
     44 C          22.6329   75.2244   -4.4620 C.3     1  UNL1        0.1693
     45 O          21.5108   75.7026   -5.2065 O.3     1  UNL1       -0.3794
     46 H          21.8634   76.1505   -5.9874 H       1  UNL1        0.2105
@<TRIPOS>BOND
     1    29    30    1
     2    29    28    1
     3    29    36    1
     4    30    31    1
     5    30    41    1
     6    31    32    1
     7    31    34    1
     8    32    33    1
     9    32    35    1
    10    33    44    1
    11    33    36    1
    12    44    45    1
    13    39    40    1
    14    39    41   am
    15    39    42    2
    16    41    43    1
    17    28    25    1
    18    34    37    1
    19    35    38    1
    20    45    46    1
    21    15    16   ar
    22    15    20   ar
    23    15     6    1
    24    16    17   ar
    25    16    21    2
    26    17    18   ar
    27    17    23    1
    28    18    19   ar
    29    18    22    2
    30    19    20   ar
    31     6     7    1
    32     6    11    1
    33     7     8    1
    34     7     9    1
    35     8    13    1
    36     9    10    1
    37     9    12    1
    38    10    11    1
    39    10     5    1
    40    12    14    1
    41     5     4    1
    42     4     1    1
    43     1     2    2
    44     1     3    1
    45     1    24    1
    46    24    25    1
    47    25    26    2
    48    25    27    1
@<TRIPOS>MOLECULE
UD1
 46 48 0 0 0
SMALL
GASTEIGER

@<TRIPOS>ATOM
      1 P          17.8220   74.5266   -2.6765 P.3     1  UNL1        0.2189
      2 O          16.8815   75.2821   -1.8200 O.2     1  UNL1       -0.5170
      3 O          17.2980   74.5489   -4.1988 O.3     1  UNL1       -0.4371
      4 O          17.9097   73.0032   -2.1624 O.3     1  UNL1       -0.3112
      5 C          16.6765   72.3753   -2.5165 C.3     1  UNL1        0.1811
      6 C          17.8519   70.2406   -5.1601 C.3     1  UNL1        0.2383
      7 C          19.0719   70.4003   -4.2187 C.3     1  UNL1        0.1895
      8 O          19.8947   69.2334   -4.2459 O.3     1  UNL1       -0.3779
      9 C          18.3947   70.5677   -2.8336 C.3     1  UNL1        0.1713
     10 C          16.9613   71.0222   -3.1702 C.3     1  UNL1        0.1764
     11 O          16.8733   71.1420   -4.6003 O.3     1  UNL1       -0.3308
     12 O          18.3798   69.3236   -2.1303 O.3     1  UNL1       -0.3794
     13 H          20.6326   69.3969   -3.6423 H       1  UNL1        0.2106
     14 H          19.3019   69.0638   -2.0028 H       1  UNL1        0.2105
     15 N          18.1953   70.6356   -6.5267 N.ar    1  UNL1       -0.2551
     16 C          17.2674   70.5558   -7.4963 C.ar    1  UNL1        0.3323
     17 N          17.5541   70.9161   -8.7614 N.ar    1  UNL1       -0.2743
     18 C          18.7880   71.3569   -9.0793 C.ar    1  UNL1        0.2626
     19 C          19.7761   71.4402   -8.0695 C.ar    1  UNL1        0.0795
     20 C          19.4600   71.0774   -6.8078 C.ar    1  UNL1        0.0869
     21 O          16.1500   70.1602   -7.2253 O.2     1  UNL1       -0.2464
     22 O          19.0497   71.6783  -10.2236 O.2     1  UNL1       -0.2670
     23 H          16.8713   70.8566   -9.4472 H       1  UNL1        0.1734
     24 O          19.2797   75.2034   -2.5997 O.3     1  UNL1       -0.2703
     25 P          19.8240   74.9665   -1.1041 P.3     1  UNL1        0.2208
     26 O          18.7402   75.2419   -0.1354 O.2     1  UNL1       -0.5170
     27 O          21.0614   75.9565   -0.8195 O.3     1  UNL1       -0.4371
     28 O          20.3115   73.4410   -0.9444 O.3     1  UNL1       -0.2865
     29 C          21.7397   73.4565   -0.9789 C.3     1  UNL1        0.2611
     30 C          22.2317   72.4197   -1.9904 C.3     1  UNL1        0.1582
     31 C          21.7153   71.0357   -1.5810 C.3     1  UNL1        0.1625
     32 C          22.1207   70.7717   -0.1271 C.3     1  UNL1        0.1686
     33 C          21.6343   71.9315    0.7444 C.3     1  UNL1        0.1760
     34 O          22.2893   70.0401   -2.4300 O.3     1  UNL1       -0.3801
     35 O          21.5252   69.5527    0.3213 O.3     1  UNL1       -0.3794
     36 O          22.2485   73.1465    0.3167 O.3     1  UNL1       -0.3263
     37 H          21.9379   69.1877   -2.1381 H       1  UNL1        0.2105
     38 H          21.8051   69.4255    1.2389 H       1  UNL1        0.2105
     39 C          22.5865   72.9379   -4.3441 C.2     1  UNL1        0.2231
     40 C          22.0664   73.2859   -5.7154 C.3     1  UNL1        0.0946
     41 N          21.7270   72.7573   -3.3229 N.am    1  UNL1       -0.2994
     42 O          23.7792   72.8211   -4.1596 O.2     1  UNL1       -0.2751
     43 H          20.7724   72.8510   -3.4701 H       1  UNL1        0.1496
     44 C          22.0058   71.6618    2.2040 C.3     1  UNL1        0.1693
     45 O          22.8687   72.6986    2.6757 O.3     1  UNL1       -0.3794
     46 H          23.0785   72.4908    3.5963 H       1  UNL1        0.2105
@<TRIPOS>BOND
     1    29    30    1
     2    29    28    1
     3    29    36    1
     4    30    31    1
     5    30    41    1
     6    31    32    1
     7    31    34    1
     8    32    33    1
     9    32    35    1
    10    33    44    1
    11    33    36    1
    12    44    45    1
    13    39    40    1
    14    39    41   am
    15    39    42    2
    16    41    43    1
    17    28    25    1
    18    34    37    1
    19    35    38    1
    20    45    46    1
    21    15    16   ar
    22    15    20   ar
    23    15     6    1
    24    16    17   ar
    25    16    21    2
    26    17    18   ar
    27    17    23    1
    28    18    19   ar
    29    18    22    2
    30    19    20   ar
    31     6     7    1
    32     6    11    1
    33     7     8    1
    34     7     9    1
    35     8    13    1
    36     9    10    1
    37     9    12    1
    38    10    11    1
    39    10     5    1
    40    12    14    1
    41     5     4    1
    42     4     1    1
    43     1     2    2
    44     1     3    1
    45     1    24    1
    46    24    25    1
    47    25    26    2
    48    25    27    1
@<TRIPOS>MOLECULE
UD1
 46 48 0 0 0
SMALL
GASTEIGER

@<TRIPOS>ATOM
      1 P          18.2860   70.3376   -3.9834 P.3     1  UNL1        0.2189
      2 O          19.4529   69.9236   -4.7932 O.2     1  UNL1       -0.5170
      3 O          17.9576   69.1985   -2.8939 O.3     1  UNL1       -0.4371
      4 O          17.0112   70.5420   -4.9456 O.3     1  UNL1       -0.3112
      5 C          17.5044   70.5693   -6.2859 C.3     1  UNL1        0.1811
      6 C          18.8318   73.5113   -7.8701 C.3     1  UNL1        0.2383
      7 C          18.2121   72.6920   -9.0299 C.3     1  UNL1        0.1895
      8 O          17.7314   73.5522  -10.0634 O.3     1  UNL1       -0.3779
      9 C          17.0379   71.9652   -8.3240 C.3     1  UNL1        0.1713
     10 C          17.4217   71.9955   -6.8319 C.3     1  UNL1        0.1764
     11 O          18.7066   72.6328   -6.7316 O.3     1  UNL1       -0.3308
     12 O          15.8111   72.6640   -8.5460 O.3     1  UNL1       -0.3794
     13 H          17.3604   72.9829  -10.7517 H       1  UNL1        0.2106
     14 H          15.6573   72.6619   -9.5002 H       1  UNL1        0.2105
     15 N          20.2388   73.8101   -8.1392 N.ar    1  UNL1       -0.2551
     16 C          21.1308   72.8069   -8.2129 C.ar    1  UNL1        0.3323
     17 N          22.4306   73.0521   -8.4631 N.ar    1  UNL1       -0.2743
     18 C          22.8624   74.3177   -8.6356 C.ar    1  UNL1        0.2626
     19 C          21.9351   75.3838   -8.5546 C.ar    1  UNL1        0.0795
     20 C          20.6363   75.1091   -8.3079 C.ar    1  UNL1        0.0869
     21 O          20.7567   71.6601   -8.0597 O.2     1  UNL1       -0.2464
     22 O          24.0382   74.5409   -8.8570 O.2     1  UNL1       -0.2670
     23 H          23.0593   72.3160   -8.5176 H       1  UNL1        0.1734
     24 O          18.6180   71.7209   -3.2317 O.3     1  UNL1       -0.2703
     25 P          19.9295   71.4603   -2.3365 P.3     1  UNL1        0.2208
     26 O          21.1384   71.7736   -3.1298 O.2     1  UNL1       -0.5170
     27 O          19.9720   69.9163   -1.8822 O.3     1  UNL1       -0.4371
     28 O          19.8855   72.4012   -1.0313 O.3     1  UNL1       -0.2865
     29 C          20.7721   73.4940   -1.2781 C.3     1  UNL1        0.2611
     30 C          21.8123   73.5631   -0.1586 C.3     1  UNL1        0.1582
     31 C          21.0932   73.7421    1.1833 C.3     1  UNL1        0.1625
     32 C          20.1621   74.9549    1.0826 C.3     1  UNL1        0.1686
     33 C          19.2442   74.7792   -0.1290 C.3     1  UNL1        0.1760
     34 O          22.0555   73.9576    2.2172 O.3     1  UNL1       -0.3801
     35 O          19.3743   75.0526    2.2706 O.3     1  UNL1       -0.3794
     36 O          20.0266   74.7088   -1.3204 O.3     1  UNL1       -0.3263
     37 H          21.5610   74.0644    3.0414 H       1  UNL1        0.2105
     38 H          18.8034   75.8268    2.1648 H       1  UNL1        0.2105
     39 C          22.2343   71.3171    0.6849 C.2     1  UNL1        0.2231
     40 C          23.0368   70.0413    0.7079 C.3     1  UNL1        0.0946
     41 N          22.5912   72.3234   -0.1363 N.am    1  UNL1       -0.2994
     42 O          21.2674   71.4382    1.4065 O.2     1  UNL1       -0.2751
     43 H          23.3651   72.2268   -0.7136 H       1  UNL1        0.1496
     44 C          18.2879   75.9702   -0.2198 C.3     1  UNL1        0.1693
     45 O          17.2277   75.6622   -1.1271 O.3     1  UNL1       -0.3794
     46 H          16.6498   76.4367   -1.1553 H       1  UNL1        0.2105
@<TRIPOS>BOND
     1    29    30    1
     2    29    28    1
     3    29    36    1
     4    30    31    1
     5    30    41    1
     6    31    32    1
     7    31    34    1
     8    32    33    1
     9    32    35    1
    10    33    44    1
    11    33    36    1
    12    44    45    1
    13    39    40    1
    14    39    41   am
    15    39    42    2
    16    41    43    1
    17    28    25    1
    18    34    37    1
    19    35    38    1
    20    45    46    1
    21    15    16   ar
    22    15    20   ar
    23    15     6    1
    24    16    17   ar
    25    16    21    2
    26    17    18   ar
    27    17    23    1
    28    18    19   ar
    29    18    22    2
    30    19    20   ar
    31     6     7    1
    32     6    11    1
    33     7     8    1
    34     7     9    1
    35     8    13    1
    36     9    10    1
    37     9    12    1
    38    10    11    1
    39    10     5    1
    40    12    14    1
    41     5     4    1
    42     4     1    1
    43     1     2    2
    44     1     3    1
    45     1    24    1
    46    24    25    1
    47    25    26    2
    48    25    27    1
@<TRIPOS>MOLECULE
UD1
 46 48 0 0 0
SMALL
GASTEIGER

@<TRIPOS>ATOM
      1 P          19.7271   69.8456   -2.9357 P.3     1  UNL1        0.2189
      2 O          19.4303   68.4436   -3.3031 O.2     1  UNL1       -0.5170
      3 O          21.0645   70.3271   -3.6922 O.3     1  UNL1       -0.4371
      4 O          19.9460   69.9478   -1.3437 O.3     1  UNL1       -0.3112
      5 C          21.2805   70.4140   -1.1385 C.3     1  UNL1        0.1811
      6 C          21.6273   73.3649    0.8863 C.3     1  UNL1        0.2383
      7 C          23.0240   73.1672    0.2458 C.3     1  UNL1        0.1895
      8 O          23.6784   74.4212    0.0495 O.3     1  UNL1       -0.3779
      9 C          22.6690   72.5096   -1.1131 C.3     1  UNL1        0.1713
     10 C          21.2619   71.9229   -0.8888 C.3     1  UNL1        0.1764
     11 O          20.8985   72.1881    0.4767 O.3     1  UNL1       -0.3308
     12 O          22.6496   73.4896   -2.1533 O.3     1  UNL1       -0.3794
     13 H          24.5382   74.2291   -0.3496 H       1  UNL1        0.2106
     14 H          23.5405   73.8607   -2.2040 H       1  UNL1        0.2105
     15 N          21.7288   73.4276    2.3448 N.ar    1  UNL1       -0.2551
     16 C          21.8818   72.2942    3.0513 C.ar    1  UNL1        0.3323
     17 N          21.9819   72.3222    4.3935 N.ar    1  UNL1       -0.2743
     18 C          21.9205   73.4955    5.0551 C.ar    1  UNL1        0.2626
     19 C          21.7536   74.6957    4.3240 C.ar    1  UNL1        0.0795
     20 C          21.6613   74.6393    2.9781 C.ar    1  UNL1        0.0869
     21 O          21.9390   71.2282    2.4690 O.2     1  UNL1       -0.2464
     22 O          22.0060   73.5216    6.2689 O.2     1  UNL1       -0.2670
     23 H          22.0967   71.4954    4.8868 H       1  UNL1        0.1734
     24 O          18.4959   70.7863   -3.3694 O.3     1  UNL1       -0.2703
     25 P          18.1543   70.4284   -4.9006 P.3     1  UNL1        0.2208
     26 O          17.0370   69.4595   -4.9432 O.2     1  UNL1       -0.5170
     27 O          19.4508   69.7826   -5.6035 O.3     1  UNL1       -0.4371
     28 O          17.7322   71.7690   -5.6850 O.3     1  UNL1       -0.2865
     29 C          16.3948   71.5743   -6.1484 C.3     1  UNL1        0.2611
     30 C          16.3441   71.8118   -7.6587 C.3     1  UNL1        0.1582
     31 C          16.8182   73.2383   -7.9580 C.3     1  UNL1        0.1625
     32 C          15.9918   74.2163   -7.1161 C.3     1  UNL1        0.1686
     33 C          16.0717   73.7991   -5.6461 C.3     1  UNL1        0.1760
     34 O          16.6345   73.5226   -9.3461 O.3     1  UNL1       -0.3801
     35 O          16.5140   75.5375   -7.2684 O.3     1  UNL1       -0.3794
     36 O          15.5257   72.4904   -5.4860 O.3     1  UNL1       -0.3263
     37 H          16.9452   74.4272   -9.4895 H       1  UNL1        0.2105
     38 H          15.9664   76.1194   -6.7225 H       1  UNL1        0.2105
     39 C          18.4869   71.1914   -8.6373 C.2     1  UNL1        0.2231
     40 C          19.3869   70.2032   -9.3342 C.3     1  UNL1        0.0946
     41 N          17.2189   70.8519   -8.3352 N.am    1  UNL1       -0.2994
     42 O          18.9040   72.2928   -8.3491 O.2     1  UNL1       -0.2751
     43 H          16.8848   69.9706   -8.5659 H       1  UNL1        0.1496
     44 C          15.2759   74.7887   -4.7925 C.3     1  UNL1        0.1693
     45 O          14.1572   75.2707   -5.5396 O.3     1  UNL1       -0.3794
     46 H          13.6842   75.8897   -4.9671 H       1  UNL1        0.2105
@<TRIPOS>BOND
     1    29    30    1
     2    29    28    1
     3    29    36    1
     4    30    31    1
     5    30    41    1
     6    31    32    1
     7    31    34    1
     8    32    33    1
     9    32    35    1
    10    33    44    1
    11    33    36    1
    12    44    45    1
    13    39    40    1
    14    39    41   am
    15    39    42    2
    16    41    43    1
    17    28    25    1
    18    34    37    1
    19    35    38    1
    20    45    46    1
    21    15    16   ar
    22    15    20   ar
    23    15     6    1
    24    16    17   ar
    25    16    21    2
    26    17    18   ar
    27    17    23    1
    28    18    19   ar
    29    18    22    2
    30    19    20   ar
    31     6     7    1
    32     6    11    1
    33     7     8    1
    34     7     9    1
    35     8    13    1
    36     9    10    1
    37     9    12    1
    38    10    11    1
    39    10     5    1
    40    12    14    1
    41     5     4    1
    42     4     1    1
    43     1     2    2
    44     1     3    1
    45     1    24    1
    46    24    25    1
    47    25    26    2
    48    25    27    1
@<TRIPOS>MOLECULE
UD1
 46 48 0 0 0
SMALL
GASTEIGER

@<TRIPOS>ATOM
      1 P          14.4465   72.7643   -2.0599 P.3     1  UNL1        0.2189
      2 O          13.5539   73.7132   -1.3588 O.2     1  UNL1       -0.5170
      3 O          14.3517   73.0118   -3.6481 O.3     1  UNL1       -0.4371
      4 O          13.9944   71.2556   -1.7250 O.3     1  UNL1       -0.3112
      5 C          12.7620   71.3424   -1.0081 C.3     1  UNL1        0.1811
      6 C          11.5500   68.3349    0.5455 C.3     1  UNL1        0.2383
      7 C          10.3361   69.2974    0.5633 C.3     1  UNL1        0.1895
      8 O           9.1084   68.5733    0.4758 O.3     1  UNL1       -0.3779
      9 C          10.5721   70.1429   -0.7152 C.3     1  UNL1        0.1713
     10 C          12.0767   69.9750   -1.0025 C.3     1  UNL1        0.1764
     11 O          12.6255   69.1573    0.0450 O.3     1  UNL1       -0.3308
     12 O           9.7898   69.6388   -1.8000 O.3     1  UNL1       -0.3794
     13 H           8.3957   69.2270    0.4923 H       1  UNL1        0.2106
     14 H           8.8634   69.7159   -1.5356 H       1  UNL1        0.2105
     15 N          11.8521   67.8550    1.8946 N.ar    1  UNL1       -0.2551
     16 C          11.9606   66.5346    2.1233 C.ar    1  UNL1        0.3323
     17 N          12.2415   66.0650    3.3532 N.ar    1  UNL1       -0.2743
     18 C          12.4105   66.9177    4.3839 C.ar    1  UNL1        0.2626
     19 C          12.2930   68.3099    4.1584 C.ar    1  UNL1        0.0795
     20 C          12.0158   68.7540    2.9137 C.ar    1  UNL1        0.0869
     21 O          11.8110   65.7530    1.2038 O.2     1  UNL1       -0.2464
     22 O          12.6597   66.4939    5.4973 O.2     1  UNL1       -0.2670
     23 H          12.3209   65.1097    3.4991 H       1  UNL1        0.1734
     24 O          15.9622   72.9914   -1.5699 O.3     1  UNL1       -0.2703
     25 P          16.9147   72.3145   -2.6762 P.3     1  UNL1        0.2208
     26 O          17.2994   73.3283   -3.6827 O.2     1  UNL1       -0.5170
     27 O          16.1264   71.1122   -3.4009 O.3     1  UNL1       -0.4371
     28 O          18.2375   71.7354   -1.9653 O.3     1  UNL1       -0.2865
     29 C          19.3570   72.2972   -2.6525 C.3     1  UNL1        0.2611
     30 C          20.0198   71.2154   -3.5072 C.3     1  UNL1        0.1582
     31 C          20.4644   70.0625   -2.6003 C.3     1  UNL1        0.1625
     32 C          21.3373   70.6313   -1.4767 C.3     1  UNL1        0.1686
     33 C          20.5738   71.7553   -0.7730 C.3     1  UNL1        0.1760
     34 O          21.2161   69.1162   -3.3626 O.3     1  UNL1       -0.3801
     35 O          21.6416   69.5979   -0.5381 O.3     1  UNL1       -0.3794
     36 O          20.2922   72.8017   -1.7015 O.3     1  UNL1       -0.3263
     37 H          21.4746   68.4099   -2.7546 H       1  UNL1        0.2105
     38 H          22.1904   69.9985    0.1510 H       1  UNL1        0.2105
     39 C          19.1482   71.1230   -5.7801 C.2     1  UNL1        0.2231
     40 C          18.1622   70.6122   -6.7996 C.3     1  UNL1        0.0946
     41 N          19.0625   70.7191   -4.4980 N.am    1  UNL1       -0.2994
     42 O          20.0185   71.8984   -6.1139 O.2     1  UNL1       -0.2751
     43 H          18.3660   70.0988   -4.2306 H       1  UNL1        0.1496
     44 C          21.4242   72.3086    0.3723 C.3     1  UNL1        0.1693
     45 O          21.2698   71.4783    1.5250 O.3     1  UNL1       -0.3794
     46 H          21.8203   71.8612    2.2214 H       1  UNL1        0.2105
@<TRIPOS>BOND
     1    29    30    1
     2    29    28    1
     3    29    36    1
     4    30    31    1
     5    30    41    1
     6    31    32    1
     7    31    34    1
     8    32    33    1
     9    32    35    1
    10    33    44    1
    11    33    36    1
    12    44    45    1
    13    39    40    1
    14    39    41   am
    15    39    42    2
    16    41    43    1
    17    28    25    1
    18    34    37    1
    19    35    38    1
    20    45    46    1
    21    15    16   ar
    22    15    20   ar
    23    15     6    1
    24    16    17   ar
    25    16    21    2
    26    17    18   ar
    27    17    23    1
    28    18    19   ar
    29    18    22    2
    30    19    20   ar
    31     6     7    1
    32     6    11    1
    33     7     8    1
    34     7     9    1
    35     8    13    1
    36     9    10    1
    37     9    12    1
    38    10    11    1
    39    10     5    1
    40    12    14    1
    41     5     4    1
    42     4     1    1
    43     1     2    2
    44     1     3    1
    45     1    24    1
    46    24    25    1
    47    25    26    2
    48    25    27    1
@<TRIPOS>MOLECULE
UD1
 46 48 0 0 0
SMALL
GASTEIGER

@<TRIPOS>ATOM
      1 P          20.4886   70.5686   -2.3834 P.3     1  UNL1        0.2189
      2 O          21.8034   70.0035   -2.7586 O.2     1  UNL1       -0.5170
      3 O          19.4500   69.3707   -2.1028 O.3     1  UNL1       -0.4371
      4 O          19.9364   71.4856   -3.5862 O.3     1  UNL1       -0.3112
      5 C          21.0722   72.1132   -4.1833 C.3     1  UNL1        0.1811
      6 C          19.5643   72.5052   -7.4237 C.3     1  UNL1        0.2383
      7 C          20.4988   73.7324   -7.2794 C.3     1  UNL1        0.1895
      8 O          20.9989   74.1464   -8.5513 O.3     1  UNL1       -0.3779
      9 C          21.6401   73.1701   -6.3924 C.3     1  UNL1        0.1713
     10 C          21.0090   71.9455   -5.7022 C.3     1  UNL1        0.1764
     11 O          19.6382   71.8706   -6.1293 O.3     1  UNL1       -0.3308
     12 O          22.7539   72.7795   -7.1984 O.3     1  UNL1       -0.3794
     13 H          21.5704   74.9104   -8.3925 H       1  UNL1        0.2106
     14 H          23.0656   73.5759   -7.6487 H       1  UNL1        0.2105
     15 N          18.1936   72.9274   -7.7141 N.ar    1  UNL1       -0.2551
     16 C          17.8298   73.1830   -8.9828 C.ar    1  UNL1        0.3323
     17 N          16.5748   73.5691   -9.2796 N.ar    1  UNL1       -0.2743
     18 C          15.6594   73.7154   -8.3005 C.ar    1  UNL1        0.2626
     19 C          16.0306   73.4554   -6.9598 C.ar    1  UNL1        0.0795
     20 C          17.2947   73.0643   -6.6908 C.ar    1  UNL1        0.0869
     21 O          18.6441   73.0555   -9.8768 O.2     1  UNL1       -0.2464
     22 O          14.5258   74.0691   -8.5672 O.2     1  UNL1       -0.2670
     23 H          16.3285   73.7447  -10.2008 H       1  UNL1        0.1734
     24 O          20.6482   71.4638   -1.0560 O.3     1  UNL1       -0.2703
     25 P          21.9163   70.8832   -0.2534 P.3     1  UNL1        0.2208
     26 O          23.0624   70.7413   -1.1781 O.2     1  UNL1       -0.5170
     27 O          21.5467   69.4440    0.3667 O.3     1  UNL1       -0.4371
     28 O          22.3086   71.8937    0.9363 O.3     1  UNL1       -0.2865
     29 C          21.6032   73.1124    0.6945 C.3     1  UNL1        0.2611
     30 C          22.6084   74.2306    0.4132 C.3     1  UNL1        0.1582
     31 C          23.5450   74.3773    1.6177 C.3     1  UNL1        0.1625
     32 C          22.6954   74.5664    2.8789 C.3     1  UNL1        0.1686
     33 C          21.6855   73.4210    2.9758 C.3     1  UNL1        0.1760
     34 O          24.3906   75.5138    1.4311 O.3     1  UNL1       -0.3801
     35 O          23.5412   74.5583    4.0305 O.3     1  UNL1       -0.3794
     36 O          20.8214   73.4428    1.8403 O.3     1  UNL1       -0.3263
     37 H          24.9616   75.5680    2.2097 H       1  UNL1        0.2105
     38 H          22.9671   74.6791    4.8001 H       1  UNL1        0.2105
     39 C          23.1957   74.5766   -1.9256 C.2     1  UNL1        0.2231
     40 C          24.0011   74.2329   -3.1526 C.3     1  UNL1        0.0946
     41 N          23.3909   73.8974   -0.7789 N.am    1  UNL1       -0.2994
     42 O          22.3711   75.4644   -1.9707 O.2     1  UNL1       -0.2751
     43 H          24.0506   73.1867   -0.7426 H       1  UNL1        0.1496
     44 C          20.8534   73.5827    4.2496 C.3     1  UNL1        0.1693
     45 O          21.4741   72.8658    5.3187 O.3     1  UNL1       -0.3794
     46 H          20.9194   72.9932    6.1002 H       1  UNL1        0.2105
@<TRIPOS>BOND
     1    29    30    1
     2    29    28    1
     3    29    36    1
     4    30    31    1
     5    30    41    1
     6    31    32    1
     7    31    34    1
     8    32    33    1
     9    32    35    1
    10    33    44    1
    11    33    36    1
    12    44    45    1
    13    39    40    1
    14    39    41   am
    15    39    42    2
    16    41    43    1
    17    28    25    1
    18    34    37    1
    19    35    38    1
    20    45    46    1
    21    15    16   ar
    22    15    20   ar
    23    15     6    1
    24    16    17   ar
    25    16    21    2
    26    17    18   ar
    27    17    23    1
    28    18    19   ar
    29    18    22    2
    30    19    20   ar
    31     6     7    1
    32     6    11    1
    33     7     8    1
    34     7     9    1
    35     8    13    1
    36     9    10    1
    37     9    12    1
    38    10    11    1
    39    10     5    1
    40    12    14    1
    41     5     4    1
    42     4     1    1
    43     1     2    2
    44     1     3    1
    45     1    24    1
    46    24    25    1
    47    25    26    2
    48    25    27    1
@<TRIPOS>MOLECULE
UD1
 46 48 0 0 0
SMALL
GASTEIGER

@<TRIPOS>ATOM
      1 P          14.3814   72.2594   -2.2190 P.3     1  UNL1        0.2189
      2 O          13.7365   72.6419   -3.4944 O.2     1  UNL1       -0.5170
      3 O          14.5595   73.5657   -1.2947 O.3     1  UNL1       -0.4371
      4 O          15.8262   71.6157   -2.5208 O.3     1  UNL1       -0.3112
      5 C          16.3006   72.2118   -3.7291 C.3     1  UNL1        0.1811
      6 C          18.9656   70.9361   -5.7779 C.3     1  UNL1        0.2383
      7 C          19.3183   70.4651   -4.3447 C.3     1  UNL1        0.1895
      8 O          20.0271   69.2258   -4.3739 O.3     1  UNL1       -0.3779
      9 C          17.9162   70.2858   -3.7066 C.3     1  UNL1        0.1713
     10 C          16.9915   71.1498   -4.5858 C.3     1  UNL1        0.1764
     11 O          17.8136   71.7832   -5.5810 O.3     1  UNL1       -0.3308
     12 O          17.5189   68.9136   -3.7491 O.3     1  UNL1       -0.3794
     13 H          20.2162   68.9895   -3.4552 H       1  UNL1        0.2106
     14 H          18.1682   68.4187   -3.2317 H       1  UNL1        0.2105
     15 N          20.0714   71.6963   -6.3617 N.ar    1  UNL1       -0.2551
     16 C          20.3733   71.5409   -7.6625 C.ar    1  UNL1        0.3323
     17 N          21.3826   72.2300   -8.2270 N.ar    1  UNL1       -0.2743
     18 C          22.1174   73.0860   -7.4885 C.ar    1  UNL1        0.2626
     19 C          21.8143   73.2548   -6.1165 C.ar    1  UNL1        0.0795
     20 C          20.7931   72.5550   -5.5771 C.ar    1  UNL1        0.0869
     21 O          19.7197   70.7725   -8.3416 O.2     1  UNL1       -0.2464
     22 O          23.0332   73.7060   -7.9967 O.2     1  UNL1       -0.2670
     23 H          21.5834   72.1090   -9.1678 H       1  UNL1        0.1734
     24 O          13.4629   71.1815   -1.4552 O.3     1  UNL1       -0.2703
     25 P          12.0578   71.9030   -1.1475 P.3     1  UNL1        0.2208
     26 O          11.4000   72.2655   -2.4221 O.2     1  UNL1       -0.5170
     27 O          12.3162   73.2346   -0.2801 O.3     1  UNL1       -0.4371
     28 O          11.1086   70.9010   -0.3197 O.3     1  UNL1       -0.2865
     29 C          11.6255   69.5836   -0.5158 C.3     1  UNL1        0.2611
     30 C          10.4625   68.6066   -0.6976 C.3     1  UNL1        0.1582
     31 C           9.5666   68.6570    0.5451 C.3     1  UNL1        0.1625
     32 C          10.4340   68.4145    1.7848 C.3     1  UNL1        0.1686
     33 C          11.5976   69.4082    1.7809 C.3     1  UNL1        0.1760
     34 O           8.5630   67.6441    0.4533 O.3     1  UNL1       -0.3801
     35 O           9.6474   68.6022    2.9627 O.3     1  UNL1       -0.3794
     36 O          12.4012   69.2051    0.6193 O.3     1  UNL1       -0.3263
     37 H           8.0236   67.7120    1.2531 H       1  UNL1        0.2105
     38 H          10.2311   68.4410    3.7176 H       1  UNL1        0.2105
     39 C           9.1619   68.0340   -2.6763 C.2     1  UNL1        0.2231
     40 C           8.3616   68.4246   -3.8924 C.3     1  UNL1        0.0946
     41 N           9.6845   68.9856   -1.8789 N.am    1  UNL1       -0.2994
     42 O           9.3362   66.8627   -2.4157 O.2     1  UNL1       -0.2751
     43 H           9.5453   69.9230   -2.0874 H       1  UNL1        0.1496
     44 C          12.4522   69.1958    3.0323 C.3     1  UNL1        0.1693
     45 O          13.5937   68.4025    2.7011 O.3     1  UNL1       -0.3794
     46 H          14.1037   68.2925    3.5150 H       1  UNL1        0.2105
@<TRIPOS>BOND
     1    29    30    1
     2    29    28    1
     3    29    36    1
     4    30    31    1
     5    30    41    1
     6    31    32    1
     7    31    34    1
     8    32    33    1
     9    32    35    1
    10    33    44    1
    11    33    36    1
    12    44    45    1
    13    39    40    1
    14    39    41   am
    15    39    42    2
    16    41    43    1
    17    28    25    1
    18    34    37    1
    19    35    38    1
    20    45    46    1
    21    15    16   ar
    22    15    20   ar
    23    15     6    1
    24    16    17   ar
    25    16    21    2
    26    17    18   ar
    27    17    23    1
    28    18    19   ar
    29    18    22    2
    30    19    20   ar
    31     6     7    1
    32     6    11    1
    33     7     8    1
    34     7     9    1
    35     8    13    1
    36     9    10    1
    37     9    12    1
    38    10    11    1
    39    10     5    1
    40    12    14    1
    41     5     4    1
    42     4     1    1
    43     1     2    2
    44     1     3    1
    45     1    24    1
    46    24    25    1
    47    25    26    2
    48    25    27    1
@<TRIPOS>MOLECULE
UD1
 46 48 0 0 0
SMALL
GASTEIGER

@<TRIPOS>ATOM
      1 P          21.3337   73.4222   -6.3848 P.3     1  UNL1        0.2189
      2 O          22.5709   72.8133   -6.9208 O.2     1  UNL1       -0.5170
      3 O          21.3849   75.0174   -6.5973 O.3     1  UNL1       -0.4371
      4 O          21.2126   73.0948   -4.8129 O.3     1  UNL1       -0.3112
      5 C          22.5350   72.8306   -4.3420 C.3     1  UNL1        0.1811
      6 C          22.3585   70.9558   -1.2791 C.3     1  UNL1        0.2383
      7 C          20.8968   71.0024   -1.7905 C.3     1  UNL1        0.1895
      8 O          20.1796   69.8325   -1.3956 O.3     1  UNL1       -0.3779
      9 C          21.0910   71.0395   -3.3287 C.3     1  UNL1        0.1713
     10 C          22.5347   71.5462   -3.5117 C.3     1  UNL1        0.1764
     11 O          23.0665   71.8103   -2.2022 O.3     1  UNL1       -0.3308
     12 O          20.9389   69.7313   -3.8839 O.3     1  UNL1       -0.3794
     13 H          19.2816   69.9238   -1.7431 H       1  UNL1        0.2106
     14 H          20.0369   69.4468   -3.6852 H       1  UNL1        0.2105
     15 N          22.4490   71.4812    0.0837 N.ar    1  UNL1       -0.2551
     16 C          22.3998   70.6362    1.1281 C.ar    1  UNL1        0.3323
     17 N          22.4846   71.0910    2.3923 N.ar    1  UNL1       -0.2743
     18 C          22.6119   72.4117    2.6321 C.ar    1  UNL1        0.2626
     19 C          22.6590   73.3130    1.5420 C.ar    1  UNL1        0.0795
     20 C          22.5771   72.8292    0.2840 C.ar    1  UNL1        0.0869
     21 O          22.2853   69.4422    0.9280 O.2     1  UNL1       -0.2464
     22 O          22.6839   72.8245    3.7749 O.2     1  UNL1       -0.2670
     23 H          22.4522   70.4668    3.1336 H       1  UNL1        0.1734
     24 O          20.0591   72.8173   -7.1584 O.3     1  UNL1       -0.2703
     25 P          20.1316   73.3624   -8.6707 P.3     1  UNL1        0.2208
     26 O          20.3106   72.2231   -9.5975 O.2     1  UNL1       -0.5170
     27 O          21.3755   74.3738   -8.8184 O.3     1  UNL1       -0.4371
     28 O          18.7669   74.1365   -9.0295 O.3     1  UNL1       -0.2865
     29 C          18.0959   74.3881   -7.7935 C.3     1  UNL1        0.2611
     30 C          16.7068   73.7487   -7.8337 C.3     1  UNL1        0.1582
     31 C          15.9173   74.3384   -9.0078 C.3     1  UNL1        0.1625
     32 C          15.9287   75.8660   -8.8881 C.3     1  UNL1        0.1686
     33 C          17.3769   76.3460   -8.7714 C.3     1  UNL1        0.1760
     34 O          14.5710   73.8616   -8.9672 O.3     1  UNL1       -0.3801
     35 O          15.3252   76.4409  -10.0487 O.3     1  UNL1       -0.3794
     36 O          17.9743   75.7954   -7.5982 O.3     1  UNL1       -0.3263
     37 H          14.1121   74.2561   -9.7215 H       1  UNL1        0.2105
     38 H          15.3540   77.4012   -9.9324 H       1  UNL1        0.2105
     39 C          16.4521   71.4643   -7.0269 C.2     1  UNL1        0.2231
     40 C          16.5887   69.9740   -7.2078 C.3     1  UNL1        0.0946
     41 N          16.8388   72.3009   -8.0092 N.am    1  UNL1       -0.2994
     42 O          15.9946   71.9105   -5.9965 O.2     1  UNL1       -0.2751
     43 H          17.2052   71.9441   -8.8338 H       1  UNL1        0.1496
     44 C          17.4012   77.8734   -8.6840 C.3     1  UNL1        0.1693
     45 O          17.2401   78.4284   -9.9910 O.3     1  UNL1       -0.3794
     46 H          17.2614   79.3897   -9.8913 H       1  UNL1        0.2105
@<TRIPOS>BOND
     1    29    30    1
     2    29    28    1
     3    29    36    1
     4    30    31    1
     5    30    41    1
     6    31    32    1
     7    31    34    1
     8    32    33    1
     9    32    35    1
    10    33    44    1
    11    33    36    1
    12    44    45    1
    13    39    40    1
    14    39    41   am
    15    39    42    2
    16    41    43    1
    17    28    25    1
    18    34    37    1
    19    35    38    1
    20    45    46    1
    21    15    16   ar
    22    15    20   ar
    23    15     6    1
    24    16    17   ar
    25    16    21    2
    26    17    18   ar
    27    17    23    1
    28    18    19   ar
    29    18    22    2
    30    19    20   ar
    31     6     7    1
    32     6    11    1
    33     7     8    1
    34     7     9    1
    35     8    13    1
    36     9    10    1
    37     9    12    1
    38    10    11    1
    39    10     5    1
    40    12    14    1
    41     5     4    1
    42     4     1    1
    43     1     2    2
    44     1     3    1
    45     1    24    1
    46    24    25    1
    47    25    26    2
    48    25    27    1
@<TRIPOS>MOLECULE
UD1
 46 48 0 0 0
SMALL
GASTEIGER

@<TRIPOS>ATOM
      1 P          22.7650   73.5186   -4.3873 P.3     1  UNL1        0.2189
      2 O          23.8887   72.5989   -4.1040 O.2     1  UNL1       -0.5170
      3 O          23.1704   74.5061   -5.5927 O.3     1  UNL1       -0.4371
      4 O          22.4376   74.3864   -3.0710 O.3     1  UNL1       -0.3112
      5 C          21.5582   73.6004   -2.2652 C.3     1  UNL1        0.1811
      6 C          22.4082   72.2257    0.9465 C.3     1  UNL1        0.2383
      7 C          21.4379   71.1899    0.3253 C.3     1  UNL1        0.1895
      8 O          21.7398   69.8701    0.7796 O.3     1  UNL1       -0.3779
      9 C          21.7335   71.3347   -1.1902 C.3     1  UNL1        0.1713
     10 C          22.3793   72.7283   -1.3141 C.3     1  UNL1        0.1764
     11 O          22.3918   73.3143   -0.0013 O.3     1  UNL1       -0.3308
     12 O          22.6384   70.3166   -1.6229 O.3     1  UNL1       -0.3794
     13 H          21.1027   69.2764    0.3587 H       1  UNL1        0.2106
     14 H          22.2015   69.4691   -1.4649 H       1  UNL1        0.2105
     15 N          21.9245   72.6719    2.2535 N.ar    1  UNL1       -0.2551
     16 C          20.8686   73.5009    2.3257 C.ar    1  UNL1        0.3323
     17 N          20.3998   73.9242    3.5145 N.ar    1  UNL1       -0.2743
     18 C          20.9923   73.5276    4.6589 C.ar    1  UNL1        0.2626
     19 C          22.1085   72.6598    4.5971 C.ar    1  UNL1        0.0795
     20 C          22.5548   72.2462    3.3917 C.ar    1  UNL1        0.0869
     21 O          20.3235   73.8673    1.3024 O.2     1  UNL1       -0.2464
     22 O          20.5722   73.9136    5.7340 O.2     1  UNL1       -0.2670
     23 H          19.6342   74.5183    3.5481 H       1  UNL1        0.1734
     24 O          21.4658   72.6661   -4.8045 O.3     1  UNL1       -0.2703
     25 P          21.1269   73.0516   -6.3296 P.3     1  UNL1        0.2208
     26 O          22.2218   72.5886   -7.2103 O.2     1  UNL1       -0.5170
     27 O          20.9744   74.6492   -6.4588 O.3     1  UNL1       -0.4371
     28 O          19.7493   72.3452   -6.7696 O.3     1  UNL1       -0.2865
     29 C          18.7752   72.6845   -5.7810 C.3     1  UNL1        0.2611
     30 C          18.0769   71.4107   -5.3019 C.3     1  UNL1        0.1582
     31 C          17.4144   70.7213   -6.5000 C.3     1  UNL1        0.1625
     32 C          16.5089   71.7340   -7.2090 C.3     1  UNL1        0.1686
     33 C          17.3265   72.9824   -7.5470 C.3     1  UNL1        0.1760
     34 O          16.6351   69.6138   -6.0444 O.3     1  UNL1       -0.3801
     35 O          15.9961   71.1568   -8.4113 O.3     1  UNL1       -0.3794
     36 O          17.8174   73.5770   -6.3462 O.3     1  UNL1       -0.3263
     37 H          16.2379   69.2104   -6.8285 H       1  UNL1        0.2105
     38 H          15.4334   71.8266   -8.8252 H       1  UNL1        0.2105
     39 C          18.7448   69.8043   -3.5966 C.2     1  UNL1        0.2231
     40 C          19.7588   68.8768   -2.9771 C.3     1  UNL1        0.0946
     41 N          19.0614   70.5091   -4.6999 N.am    1  UNL1       -0.2994
     42 O          17.6437   69.9167   -3.1015 O.2     1  UNL1       -0.2751
     43 H          19.9426   70.4195   -5.0962 H       1  UNL1        0.1496
     44 C          16.4391   73.9873   -8.2846 C.3     1  UNL1        0.1693
     45 O          15.4463   73.2854   -9.0354 O.3     1  UNL1       -0.3794
     46 H          14.9103   73.9535   -9.4838 H       1  UNL1        0.2105
@<TRIPOS>BOND
     1    29    30    1
     2    29    28    1
     3    29    36    1
     4    30    31    1
     5    30    41    1
     6    31    32    1
     7    31    34    1
     8    32    33    1
     9    32    35    1
    10    33    44    1
    11    33    36    1
    12    44    45    1
    13    39    40    1
    14    39    41   am
    15    39    42    2
    16    41    43    1
    17    28    25    1
    18    34    37    1
    19    35    38    1
    20    45    46    1
    21    15    16   ar
    22    15    20   ar
    23    15     6    1
    24    16    17   ar
    25    16    21    2
    26    17    18   ar
    27    17    23    1
    28    18    19   ar
    29    18    22    2
    30    19    20   ar
    31     6     7    1
    32     6    11    1
    33     7     8    1
    34     7     9    1
    35     8    13    1
    36     9    10    1
    37     9    12    1
    38    10    11    1
    39    10     5    1
    40    12    14    1
    41     5     4    1
    42     4     1    1
    43     1     2    2
    44     1     3    1
    45     1    24    1
    46    24    25    1
    47    25    26    2
    48    25    27    1
@<TRIPOS>MOLECULE
UD1
 46 48 0 0 0
SMALL
GASTEIGER

@<TRIPOS>ATOM
      1 P          19.3711   69.8787   -2.9187 P.3     1  UNL1        0.2189
      2 O          19.1960   71.2452   -2.3794 O.2     1  UNL1       -0.5170
      3 O          18.3155   68.8856   -2.2173 O.3     1  UNL1       -0.4371
      4 O          20.8684   69.3703   -2.6147 O.3     1  UNL1       -0.3112
      5 C          21.7436   70.4597   -2.9107 C.3     1  UNL1        0.1811
      6 C          22.4187   72.4849   -0.0177 C.3     1  UNL1        0.2383
      7 C          21.5105   71.3457    0.5093 C.3     1  UNL1        0.1895
      8 O          21.8104   71.0420    1.8721 O.3     1  UNL1       -0.3779
      9 C          21.8975   70.1651   -0.4189 C.3     1  UNL1        0.1713
     10 C          22.5211   70.8471   -1.6519 C.3     1  UNL1        0.1764
     11 O          22.4394   72.2675   -1.4445 O.3     1  UNL1       -0.3308
     12 O          22.8484   69.3137    0.2244 O.3     1  UNL1       -0.3794
     13 H          21.2132   70.3292    2.1381 H       1  UNL1        0.2106
     14 H          22.4199   68.9658    1.0178 H       1  UNL1        0.2105
     15 N          21.8451   73.7940    0.2967 N.ar    1  UNL1       -0.2551
     16 C          22.6566   74.8198    0.6074 C.ar    1  UNL1        0.3323
     17 N          22.1568   76.0358    0.8970 N.ar    1  UNL1       -0.2743
     18 C          20.8245   76.2424    0.8887 C.ar    1  UNL1        0.2626
     19 C          19.9584   75.1697    0.5692 C.ar    1  UNL1        0.0795
     20 C          20.4867   73.9617    0.2775 C.ar    1  UNL1        0.0869
     21 O          23.8605   74.6491    0.6190 O.2     1  UNL1       -0.2464
     22 O          20.3714   77.3402    1.1550 O.2     1  UNL1       -0.2670
     23 H          22.7571   76.7656    1.1142 H       1  UNL1        0.1734
     24 O          19.1217   69.8930   -4.5082 O.3     1  UNL1       -0.2703
     25 P          17.5980   70.3576   -4.7355 P.3     1  UNL1        0.2208
     26 O          17.0027   70.7478   -3.4385 O.2     1  UNL1       -0.5170
     27 O          16.7540   69.1412   -5.3682 O.3     1  UNL1       -0.4371
     28 O          17.5630   71.6135   -5.7414 O.3     1  UNL1       -0.2865
     29 C          16.2634   71.6334   -6.3346 C.3     1  UNL1        0.2611
     30 C          16.3950   71.9300   -7.8295 C.3     1  UNL1        0.1582
     31 C          17.0941   73.2818   -8.0126 C.3     1  UNL1        0.1625
     32 C          16.3367   74.3391   -7.2023 C.3     1  UNL1        0.1686
     33 C          16.2122   73.8620   -5.7537 C.3     1  UNL1        0.1760
     34 O          17.0895   73.6398   -9.3958 O.3     1  UNL1       -0.3801
     35 O          17.0537   75.5744   -7.2401 O.3     1  UNL1       -0.3794
     36 O          15.4727   72.6423   -5.7098 O.3     1  UNL1       -0.3263
     37 H          17.5381   74.4938   -9.4649 H       1  UNL1        0.2105
     38 H          16.5436   76.2100   -6.7182 H       1  UNL1        0.2105
     39 C          18.5124   71.0409   -8.6420 C.2     1  UNL1        0.2231
     40 C          19.3267   69.9575   -9.3018 C.3     1  UNL1        0.0946
     41 N          17.1866   70.8776   -8.4699 N.am    1  UNL1       -0.2994
     42 O          19.0508   72.0604   -8.2664 O.2     1  UNL1       -0.2751
     43 H          16.7554   70.0620   -8.7706 H       1  UNL1        0.1496
     44 C          15.4854   74.9258   -4.9284 C.3     1  UNL1        0.1693
     45 O          14.5272   75.5949   -5.7507 O.3     1  UNL1       -0.3794
     46 H          14.0931   76.2553   -5.1939 H       1  UNL1        0.2105
@<TRIPOS>BOND
     1    29    30    1
     2    29    28    1
     3    29    36    1
     4    30    31    1
     5    30    41    1
     6    31    32    1
     7    31    34    1
     8    32    33    1
     9    32    35    1
    10    33    44    1
    11    33    36    1
    12    44    45    1
    13    39    40    1
    14    39    41   am
    15    39    42    2
    16    41    43    1
    17    28    25    1
    18    34    37    1
    19    35    38    1
    20    45    46    1
    21    15    16   ar
    22    15    20   ar
    23    15     6    1
    24    16    17   ar
    25    16    21    2
    26    17    18   ar
    27    17    23    1
    28    18    19   ar
    29    18    22    2
    30    19    20   ar
    31     6     7    1
    32     6    11    1
    33     7     8    1
    34     7     9    1
    35     8    13    1
    36     9    10    1
    37     9    12    1
    38    10    11    1
    39    10     5    1
    40    12    14    1
    41     5     4    1
    42     4     1    1
    43     1     2    2
    44     1     3    1
    45     1    24    1
    46    24    25    1
    47    25    26    2
    48    25    27    1
@<TRIPOS>MOLECULE
UD1
 46 48 0 0 0
SMALL
GASTEIGER

@<TRIPOS>ATOM
      1 P          21.7006   70.9842   -3.1713 P.3     1  UNL1        0.2189
      2 O          21.4061   69.5377   -3.0730 O.2     1  UNL1       -0.5170
      3 O          23.2719   71.1941   -3.4530 O.3     1  UNL1       -0.4371
      4 O          21.3030   71.7074   -1.7886 O.3     1  UNL1       -0.3112
      5 C          22.4059   72.5387   -1.4242 C.3     1  UNL1        0.1811
      6 C          22.5375   73.3672    2.0720 C.3     1  UNL1        0.2383
      7 C          21.2465   72.5240    1.9211 C.3     1  UNL1        0.1895
      8 O          20.9732   71.7898    3.1150 O.3     1  UNL1       -0.3779
      9 C          21.6156   71.5690    0.7563 C.3     1  UNL1        0.1713
     10 C          22.7755   72.2853    0.0381 C.3     1  UNL1        0.1764
     11 O          22.9906   73.5370    0.7120 O.3     1  UNL1       -0.3308
     12 O          22.0391   70.3016    1.2635 O.3     1  UNL1       -0.3794
     13 H          20.1611   71.2890    2.9562 H       1  UNL1        0.2106
     14 H          21.2912   69.9320    1.7515 H       1  UNL1        0.2105
     15 N          22.2427   74.6635    2.6835 N.ar    1  UNL1       -0.2551
     16 C          21.4513   75.5393    2.0400 C.ar    1  UNL1        0.3323
     17 N          21.1601   76.7373    2.5804 N.ar    1  UNL1       -0.2743
     18 C          21.6690   77.0833    3.7801 C.ar    1  UNL1        0.2626
     19 C          22.5084   76.1733    4.4657 C.ar    1  UNL1        0.0795
     20 C          22.7799   74.9762    3.9031 C.ar    1  UNL1        0.0869
     21 O          20.9847   75.2417    0.9572 O.2     1  UNL1       -0.2464
     22 O          21.4102   78.1682    4.2675 O.2     1  UNL1       -0.2670
     23 H          20.5837   77.3548    2.1044 H       1  UNL1        0.1734
     24 O          20.8481   71.6248   -4.3762 O.3     1  UNL1       -0.2703
     25 P          19.3799   70.9700   -4.3064 P.3     1  UNL1        0.2208
     26 O          18.9142   70.9522   -2.9023 O.2     1  UNL1       -0.5170
     27 O          19.4360   69.4635   -4.8716 O.3     1  UNL1       -0.4371
     28 O          18.3605   71.8388   -5.1988 O.3     1  UNL1       -0.2865
     29 C          17.1462   71.0911   -5.2872 C.3     1  UNL1        0.2611
     30 C          16.7007   71.0224   -6.7489 C.3     1  UNL1        0.1582
     31 C          16.4990   72.4464   -7.2790 C.3     1  UNL1        0.1625
     32 C          15.5419   73.1880   -6.3398 C.3     1  UNL1        0.1686
     33 C          16.0766   73.0960   -4.9091 C.3     1  UNL1        0.1760
     34 O          15.9406   72.3936   -8.5931 O.3     1  UNL1       -0.3801
     35 O          15.4548   74.5593   -6.7317 O.3     1  UNL1       -0.3794
     36 O          16.1390   71.7289   -4.5047 O.3     1  UNL1       -0.3263
     37 H          15.8312   73.3085   -8.8871 H       1  UNL1        0.2105
     38 H          14.8444   74.9882   -6.1152 H       1  UNL1        0.2105
     39 C          18.6859   71.0616   -8.1602 C.2     1  UNL1        0.2231
     40 C          19.7424   70.3631   -8.9776 C.3     1  UNL1        0.0946
     41 N          17.7276   70.3443   -7.5427 N.am    1  UNL1       -0.2994
     42 O          18.6980   72.2698   -8.0589 O.2     1  UNL1       -0.2751
     43 H          17.7175   69.3774   -7.6238 H       1  UNL1        0.1496
     44 C          15.1447   73.8615   -3.9675 C.3     1  UNL1        0.1693
     45 O          13.7926   73.7023   -4.4016 O.3     1  UNL1       -0.3794
     46 H          13.2398   74.1990   -3.7832 H       1  UNL1        0.2105
@<TRIPOS>BOND
     1    29    30    1
     2    29    28    1
     3    29    36    1
     4    30    31    1
     5    30    41    1
     6    31    32    1
     7    31    34    1
     8    32    33    1
     9    32    35    1
    10    33    44    1
    11    33    36    1
    12    44    45    1
    13    39    40    1
    14    39    41   am
    15    39    42    2
    16    41    43    1
    17    28    25    1
    18    34    37    1
    19    35    38    1
    20    45    46    1
    21    15    16   ar
    22    15    20   ar
    23    15     6    1
    24    16    17   ar
    25    16    21    2
    26    17    18   ar
    27    17    23    1
    28    18    19   ar
    29    18    22    2
    30    19    20   ar
    31     6     7    1
    32     6    11    1
    33     7     8    1
    34     7     9    1
    35     8    13    1
    36     9    10    1
    37     9    12    1
    38    10    11    1
    39    10     5    1
    40    12    14    1
    41     5     4    1
    42     4     1    1
    43     1     2    2
    44     1     3    1
    45     1    24    1
    46    24    25    1
    47    25    26    2
    48    25    27    1
