@<TRIPOS>MOLECULE
*****
 43 45 0 0 0
SMALL
GASTEIGER

@<TRIPOS>ATOM
      1 P          23.0725   71.7138   -3.1782 P.3     1  UNL1        0.2189
      2 O          23.8942   72.8926   -3.9215 O.co2   1  UNL1       -0.4371
      3 O          23.7128   70.3583   -3.2407 O.2     1  UNL1       -0.5170
      4 O          21.5864   71.8187   -3.8094 O.3     1  UNL1       -0.3112
      5 C          20.7053   70.7203   -3.6506 C.3     1  UNL1        0.1811
      6 O          18.8795   71.8570   -4.7221 O.3     1  UNL1       -0.3308
      7 O          17.1496   70.7374   -2.5439 O.3     1  UNL1       -0.3794
      8 O          16.6257   69.0685   -4.6360 O.3     1  UNL1       -0.3779
      9 C          18.2680   70.1448   -3.2022 C.3     1  UNL1        0.1713
     10 C          17.8846   69.7094   -4.6011 C.3     1  UNL1        0.1895
     11 C          19.2860   71.2440   -3.4789 C.3     1  UNL1        0.1764
     12 C          17.8900   71.0288   -5.3543 C.3     1  UNL1        0.2383
     13 H          16.4859   70.0546   -2.3564 H       1  UNL1        0.2105
     14 H          16.6736   68.2344   -4.1434 H       1  UNL1        0.2106
     15 O          16.0304   70.4593   -7.4026 O.2     1  UNL1       -0.2464
     16 O          19.3189   70.4296  -10.6315 O.2     1  UNL1       -0.2670
     17 N          18.2327   70.8675   -6.7392 N.ar    1  UNL1       -0.2551
     18 N          17.6693   70.4452   -9.0087 N.ar    1  UNL1       -0.2743
     19 C          17.2233   70.5819   -7.6879 C.ar    1  UNL1        0.3323
     20 C          19.5571   70.9928   -7.1444 C.ar    1  UNL1        0.0869
     21 C          19.9661   70.8581   -8.4077 C.ar    1  UNL1        0.0795
     22 C          18.9744   70.5593   -9.4609 C.ar    1  UNL1        0.2626
     23 H          16.9837   70.2457   -9.6869 H       1  UNL1        0.1734
     24 O          22.8742   72.2958   -1.6833 O.3     1  UNL1       -0.2703
     25 P          22.3063   71.5994   -0.3396 P.3     1  UNL1        0.2208
     26 O          23.1323   70.2103   -0.2641 O.co2   1  UNL1       -0.4371
     27 O          20.8142   71.4348   -0.3153 O.2     1  UNL1       -0.5170
     28 O          22.9004   72.4929    0.8661 O.3     1  UNL1       -0.2858
     29 O          21.6616   73.7672    2.4340 O.3     1  UNL1       -0.3258
     30 O          25.0653   76.0964    2.2330 O.3     1  UNL1       -0.3794
     31 O          24.5636   74.5183    4.5795 O.3     1  UNL1       -0.3794
     32 O          24.0260   74.8484   -0.1633 O.3     1  UNL1       -0.3775
     33 C          24.3192   74.8762    2.2272 C.3     1  UNL1        0.1715
     34 C          23.5896   74.7539    3.5664 C.3     1  UNL1        0.1694
     35 C          23.3206   74.9072    1.0718 C.3     1  UNL1        0.1967
     36 C          22.5635   73.6133    3.5361 C.3     1  UNL1        0.1761
     37 C          22.3151   73.7580    1.1633 C.3     1  UNL1        0.2704
     38 H          25.7016   76.0829    2.9640 H       1  UNL1        0.2105
     39 H          25.2057   75.2455    4.5877 H       1  UNL1        0.2105
     40 H          24.6591   75.5813   -0.2091 H       1  UNL1        0.2106
     41 O          22.4897   73.0095    5.8467 O.3     1  UNL1       -0.3794
     42 C          21.7146   73.5737    4.8049 C.3     1  UNL1        0.1693
     43 H          21.9623   72.9782    6.6607 H       1  UNL1        0.2105
@<TRIPOS>UNITY_ATOM_ATTR
2 1
charge -1
26 1
charge -1
@<TRIPOS>BOND
     1    25    28    1
     2    25    24    1
     3    25    26    1
     4    25    27    2
     5     1     4    1
     6     1    24    1
     7     1     2    1
     8     1     3    2
     9     6    11    1
    10     6    12    1
    11    29    36    1
    12    29    37    1
    13     7     9    1
    14     7    13    1
    15     8    10    1
    16     8    14    1
    17    28    37    1
    18     4     5    1
    19    30    33    1
    20    30    38    1
    21    31    34    1
    22    31    39    1
    23    32    35    1
    24    32    40    1
    25    41    42    1
    26    41    43    1
    27    15    19    2
    28    16    22    2
    29    17    12    1
    30    17    19   ar
    31    17    20   ar
    32    18    19   ar
    33    18    22   ar
    34    18    23    1
    35     9    10    1
    36     9    11    1
    37    10    12    1
    38    11     5    1
    39    33    34    1
    40    33    35    1
    41    34    36    1
    42    35    37    1
    43    36    42    1
    44    20    21   ar
    45    21    22   ar
@<TRIPOS>MOLECULE
*****
 43 45 0 0 0
SMALL
GASTEIGER

@<TRIPOS>ATOM
      1 P          21.7204   73.8457   -5.8313 P.3     1  UNL1        0.2189
      2 O          20.6161   74.4858   -4.8373 O.co2   1  UNL1       -0.4371
      3 O          22.8357   74.7713   -6.2197 O.2     1  UNL1       -0.5170
      4 O          20.8438   73.2500   -7.0538 O.3     1  UNL1       -0.3112
      5 C          21.4883   72.4254   -8.0091 C.3     1  UNL1        0.1811
      6 O          19.9186   70.6208   -8.2394 O.3     1  UNL1       -0.3308
      7 O          18.6138   72.2764  -10.3719 O.3     1  UNL1       -0.3794
      8 O          16.9909   72.6923   -8.2202 O.3     1  UNL1       -0.3779
      9 C          19.2342   72.6955   -9.1576 C.3     1  UNL1        0.1713
     10 C          18.3454   72.3734   -7.9745 C.3     1  UNL1        0.1895
     11 C          20.4355   71.7921   -8.9082 C.3     1  UNL1        0.1764
     12 C          18.5733   70.8808   -7.8063 C.3     1  UNL1        0.2383
     13 H          17.8439   72.8390  -10.5525 H       1  UNL1        0.2105
     14 H          16.8976   73.6526   -8.3199 H       1  UNL1        0.2106
     15 O          16.1311   70.0965   -6.6238 O.2     1  UNL1       -0.2464
     16 O          18.1512   69.2696   -2.5646 O.2     1  UNL1       -0.2670
     17 N          18.4323   70.4555   -6.4422 N.ar    1  UNL1       -0.2551
     18 N          17.1390   69.6853   -4.6036 N.ar    1  UNL1       -0.2743
     19 C          17.1610   70.0834   -5.9464 C.ar    1  UNL1        0.3323
     20 C          19.5467   70.4102   -5.6117 C.ar    1  UNL1        0.0869
     21 C          19.5087   70.0294   -4.3331 C.ar    1  UNL1        0.0795
     22 C          18.2190   69.6247   -3.7373 C.ar    1  UNL1        0.2626
     23 H          16.2640   69.4219   -4.2363 H       1  UNL1        0.1734
     24 O          22.1932   72.5167   -5.0419 O.3     1  UNL1       -0.2703
     25 P          23.0208   72.3379   -3.6649 P.3     1  UNL1        0.2208
     26 O          24.2823   73.3322   -3.8585 O.co2   1  UNL1       -0.4371
     27 O          23.3939   70.9179   -3.3512 O.2     1  UNL1       -0.5170
     28 O          22.1067   73.0528   -2.5431 O.3     1  UNL1       -0.2858
     29 O          21.4542   71.2935   -1.0954 O.3     1  UNL1       -0.3258
     30 O          19.6010   74.4468    0.8211 O.3     1  UNL1       -0.3794
     31 O          21.9312   73.2464    1.9945 O.3     1  UNL1       -0.3794
     32 O          19.6639   74.3510   -2.0714 O.3     1  UNL1       -0.3775
     33 C          20.6324   73.8060    0.0655 C.3     1  UNL1        0.1715
     34 C          21.2095   72.6684    0.9104 C.3     1  UNL1        0.1694
     35 C          20.0368   73.2632   -1.2322 C.3     1  UNL1        0.1967
     36 C          22.1303   71.7695    0.0742 C.3     1  UNL1        0.1761
     37 C          21.0166   72.3424   -1.9616 C.3     1  UNL1        0.2704
     38 H          19.9727   74.7941    1.6461 H       1  UNL1        0.2105
     39 H          21.3385   73.8119    2.5141 H       1  UNL1        0.2105
     40 H          19.0434   74.9263   -1.5983 H       1  UNL1        0.2106
     41 O          21.6641   69.4937    0.6330 O.3     1  UNL1       -0.3794
     42 C          22.5916   70.5402    0.8541 C.3     1  UNL1        0.1693
     43 H          21.9451   68.7046    1.1231 H       1  UNL1        0.2105
@<TRIPOS>UNITY_ATOM_ATTR
2 1
charge -1
26 1
charge -1
@<TRIPOS>BOND
     1    25    28    1
     2    25    24    1
     3    25    26    1
     4    25    27    2
     5     1     4    1
     6     1    24    1
     7     1     2    1
     8     1     3    2
     9     6    11    1
    10     6    12    1
    11    29    36    1
    12    29    37    1
    13     7     9    1
    14     7    13    1
    15     8    10    1
    16     8    14    1
    17    28    37    1
    18     4     5    1
    19    30    33    1
    20    30    38    1
    21    31    34    1
    22    31    39    1
    23    32    35    1
    24    32    40    1
    25    41    42    1
    26    41    43    1
    27    15    19    2
    28    16    22    2
    29    17    12    1
    30    17    19   ar
    31    17    20   ar
    32    18    19   ar
    33    18    22   ar
    34    18    23    1
    35     9    10    1
    36     9    11    1
    37    10    12    1
    38    11     5    1
    39    33    34    1
    40    33    35    1
    41    34    36    1
    42    35    37    1
    43    36    42    1
    44    20    21   ar
    45    21    22   ar
@<TRIPOS>MOLECULE
*****
 43 45 0 0 0
SMALL
GASTEIGER

@<TRIPOS>ATOM
      1 P          22.7257   71.4553   -2.8027 P.3     1  UNL1        0.2189
      2 O          23.0725   72.9140   -3.4104 O.co2   1  UNL1       -0.4371
      3 O          23.5846   70.3357   -3.3128 O.2     1  UNL1       -0.5170
      4 O          21.1364   71.2950   -3.0602 O.3     1  UNL1       -0.3112
      5 C          20.4444   72.3549   -3.6971 C.3     1  UNL1        0.1811
      6 O          18.2868   72.3345   -4.7546 O.3     1  UNL1       -0.3308
      7 O          17.3189   70.8634   -2.3278 O.3     1  UNL1       -0.3794
      8 O          17.6291   68.8607   -4.1525 O.3     1  UNL1       -0.3779
      9 C          18.5777   70.7759   -2.9934 C.3     1  UNL1        0.1713
     10 C          18.4327   70.0143   -4.2944 C.3     1  UNL1        0.1895
     11 C          18.9485   72.1709   -3.4811 C.3     1  UNL1        0.1764
     12 C          17.8030   71.0575   -5.2017 C.3     1  UNL1        0.2383
     13 H          17.0612   69.9844   -2.0070 H       1  UNL1        0.2105
     14 H          18.0726   68.2276   -3.5666 H       1  UNL1        0.2106
     15 O          15.9865   70.3848   -7.2574 O.2     1  UNL1       -0.2464
     16 O          19.3122   70.3894  -10.4482 O.2     1  UNL1       -0.2670
     17 N          18.1670   70.8771   -6.5788 N.ar    1  UNL1       -0.2551
     18 N          17.6439   70.3878   -8.8445 N.ar    1  UNL1       -0.2743
     19 C          17.1783   70.5391   -7.5321 C.ar    1  UNL1        0.3323
     20 C          19.4914   71.0355   -6.9720 C.ar    1  UNL1        0.0869
     21 C          19.9193   70.8865   -8.2274 C.ar    1  UNL1        0.0795
     22 C          18.9500   70.5335   -9.2846 C.ar    1  UNL1        0.2626
     23 H          16.9730   70.1520   -9.5257 H       1  UNL1        0.1734
     24 O          22.8127   71.6964   -1.2067 O.3     1  UNL1       -0.2703
     25 P          22.4109   70.7421    0.0346 P.3     1  UNL1        0.2208
     26 O          23.6600   69.7188    0.1353 O.co2   1  UNL1       -0.4371
     27 O          21.0738   70.0747   -0.1100 O.2     1  UNL1       -0.5170
     28 O          22.5505   71.6852    1.3369 O.3     1  UNL1       -0.2858
     29 O          21.5882   72.5100    3.3395 O.3     1  UNL1       -0.3258
     30 O          21.0293   75.8155    0.9286 O.3     1  UNL1       -0.3794
     31 O          23.0195   75.8898    2.9978 O.3     1  UNL1       -0.3794
     32 O          20.6924   73.1567   -0.1655 O.3     1  UNL1       -0.3775
     33 C          21.7153   74.6588    1.4153 C.3     1  UNL1        0.1715
     34 C          22.0256   74.8737    2.8980 C.3     1  UNL1        0.1694
     35 C          20.8240   73.4329    1.2248 C.3     1  UNL1        0.1967
     36 C          22.5191   73.5772    3.5543 C.3     1  UNL1        0.1761
     37 C          21.3802   72.2108    1.9578 C.3     1  UNL1        0.2704
     38 H          21.5900   76.5973    1.0462 H       1  UNL1        0.2105
     39 H          22.6956   76.7029    2.5792 H       1  UNL1        0.2105
     40 H          20.3391   73.9379   -0.6182 H       1  UNL1        0.2106
     41 O          22.0174   72.6521    5.6993 O.3     1  UNL1       -0.3794
     42 C          22.6843   73.7278    5.0649 C.3     1  UNL1        0.1693
     43 H          22.1144   72.7347    6.6614 H       1  UNL1        0.2105
@<TRIPOS>UNITY_ATOM_ATTR
2 1
charge -1
26 1
charge -1
@<TRIPOS>BOND
     1    25    28    1
     2    25    24    1
     3    25    26    1
     4    25    27    2
     5     1     4    1
     6     1    24    1
     7     1     2    1
     8     1     3    2
     9     6    11    1
    10     6    12    1
    11    29    36    1
    12    29    37    1
    13     7     9    1
    14     7    13    1
    15     8    10    1
    16     8    14    1
    17    28    37    1
    18     4     5    1
    19    30    33    1
    20    30    38    1
    21    31    34    1
    22    31    39    1
    23    32    35    1
    24    32    40    1
    25    41    42    1
    26    41    43    1
    27    15    19    2
    28    16    22    2
    29    17    12    1
    30    17    19   ar
    31    17    20   ar
    32    18    19   ar
    33    18    22   ar
    34    18    23    1
    35     9    10    1
    36     9    11    1
    37    10    12    1
    38    11     5    1
    39    33    34    1
    40    33    35    1
    41    34    36    1
    42    35    37    1
    43    36    42    1
    44    20    21   ar
    45    21    22   ar
@<TRIPOS>MOLECULE
*****
 43 45 0 0 0
SMALL
GASTEIGER

@<TRIPOS>ATOM
      1 P          22.8745   71.7734   -2.3571 P.3     1  UNL1        0.2189
      2 O          23.6090   73.2100   -2.4763 O.co2   1  UNL1       -0.4371
      3 O          23.4368   70.6988   -3.2404 O.2     1  UNL1       -0.5170
      4 O          21.3092   72.1180   -2.5792 O.3     1  UNL1       -0.3112
      5 C          20.5822   71.3713   -3.5393 C.3     1  UNL1        0.1811
      6 O          18.6439   72.1943   -4.6966 O.3     1  UNL1       -0.3308
      7 O          17.0342   70.9786   -2.4781 O.3     1  UNL1       -0.3794
      8 O          16.7756   69.1409   -4.4762 O.3     1  UNL1       -0.3779
      9 C          18.2335   70.5037   -3.0875 C.3     1  UNL1        0.1713
     10 C          17.9382   69.9440   -4.4634 C.3     1  UNL1        0.1895
     11 C          19.1033   71.7110   -3.4153 C.3     1  UNL1        0.1764
     12 C          17.7846   71.2083   -5.2916 C.3     1  UNL1        0.2383
     13 H          16.4627   70.2254   -2.2594 H       1  UNL1        0.2105
     14 H          16.9233   68.3493   -3.9356 H       1  UNL1        0.2106
     15 O          16.0384   70.3530   -7.3404 O.2     1  UNL1       -0.2464
     16 O          19.3836   70.5066  -10.5070 O.2     1  UNL1       -0.2670
     17 N          18.1726   71.0168   -6.6606 N.ar    1  UNL1       -0.2551
     18 N          17.7055   70.4304   -8.9155 N.ar    1  UNL1       -0.2743
     19 C          17.2188   70.5838   -7.6110 C.ar    1  UNL1        0.3323
     20 C          19.4859   71.2580   -7.0489 C.ar    1  UNL1        0.0869
     21 C          19.9344   71.1056   -8.2967 C.ar    1  UNL1        0.0795
     22 C          19.0018   70.6562   -9.3504 C.ar    1  UNL1        0.2626
     23 H          17.0590   70.1292   -9.5945 H       1  UNL1        0.1734
     24 O          22.9552   71.4542   -0.7745 O.3     1  UNL1       -0.2703
     25 P          22.0540   70.4928    0.1618 P.3     1  UNL1        0.2208
     26 O          23.1515   69.7199    1.0650 O.co2   1  UNL1       -0.4371
     27 O          21.1279   69.5872   -0.5971 O.2     1  UNL1       -0.5170
     28 O          21.3160   71.4968    1.1876 O.3     1  UNL1       -0.2858
     29 O          21.7351   73.8268    1.0774 O.3     1  UNL1       -0.3258
     30 O          20.3587   73.5870    4.9632 O.3     1  UNL1       -0.3794
     31 O          18.6988   74.7727    2.9416 O.3     1  UNL1       -0.3794
     32 O          22.0464   71.4906    3.8971 O.3     1  UNL1       -0.3775
     33 C          20.4180   73.2363    3.5779 C.3     1  UNL1        0.1715
     34 C          20.0806   74.4803    2.7535 C.3     1  UNL1        0.1694
     35 C          21.8240   72.7382    3.2488 C.3     1  UNL1        0.1967
     36 C          20.3818   74.2570    1.2654 C.3     1  UNL1        0.1761
     37 C          22.0344   72.5967    1.7402 C.3     1  UNL1        0.2704
     38 H          19.4684   73.9036    5.1788 H       1  UNL1        0.2105
     39 H          18.5219   74.9110    3.8854 H       1  UNL1        0.2105
     40 H          21.9104   71.5935    4.8515 H       1  UNL1        0.2106
     41 O          20.0718   76.6250    1.3407 O.3     1  UNL1       -0.3794
     42 C          20.2022   75.5342    0.4477 C.3     1  UNL1        0.1693
     43 H          19.9571   77.4448    0.8343 H       1  UNL1        0.2105
@<TRIPOS>UNITY_ATOM_ATTR
2 1
charge -1
26 1
charge -1
@<TRIPOS>BOND
     1    25    28    1
     2    25    24    1
     3    25    26    1
     4    25    27    2
     5     1     4    1
     6     1    24    1
     7     1     2    1
     8     1     3    2
     9     6    11    1
    10     6    12    1
    11    29    36    1
    12    29    37    1
    13     7     9    1
    14     7    13    1
    15     8    10    1
    16     8    14    1
    17    28    37    1
    18     4     5    1
    19    30    33    1
    20    30    38    1
    21    31    34    1
    22    31    39    1
    23    32    35    1
    24    32    40    1
    25    41    42    1
    26    41    43    1
    27    15    19    2
    28    16    22    2
    29    17    12    1
    30    17    19   ar
    31    17    20   ar
    32    18    19   ar
    33    18    22   ar
    34    18    23    1
    35     9    10    1
    36     9    11    1
    37    10    12    1
    38    11     5    1
    39    33    34    1
    40    33    35    1
    41    34    36    1
    42    35    37    1
    43    36    42    1
    44    20    21   ar
    45    21    22   ar
@<TRIPOS>MOLECULE
*****
 43 45 0 0 0
SMALL
GASTEIGER

@<TRIPOS>ATOM
      1 P          21.6228   70.4339   -1.1249 P.3     1  UNL1        0.2189
      2 O          23.1867   70.6892   -1.4510 O.co2   1  UNL1       -0.4371
      3 O          21.3474   69.8159    0.2143 O.2     1  UNL1       -0.5170
      4 O          21.0897   69.6016   -2.4059 O.3     1  UNL1       -0.3112
      5 C          20.7479   70.3152   -3.5813 C.3     1  UNL1        0.1811
      6 O          19.0396   71.6578   -4.6075 O.3     1  UNL1       -0.3308
      7 O          17.2094   70.6332   -2.4647 O.3     1  UNL1       -0.3794
      8 O          16.5296   69.0960   -4.6122 O.3     1  UNL1       -0.3779
      9 C          18.2664   69.9599   -3.1464 C.3     1  UNL1        0.1713
     10 C          17.8439   69.6122   -4.5585 C.3     1  UNL1        0.1895
     11 C          19.3850   70.9658   -3.3876 C.3     1  UNL1        0.1764
     12 C          17.9758   70.9505   -5.2654 C.3     1  UNL1        0.2383
     13 H          16.4834   70.0107   -2.2993 H       1  UNL1        0.2105
     14 H          16.4973   68.2444   -4.1490 H       1  UNL1        0.2106
     15 O          16.0804   70.5048   -7.3116 O.2     1  UNL1       -0.2464
     16 O          19.3434   70.4087  -10.5650 O.2     1  UNL1       -0.2670
     17 N          18.3023   70.8055   -6.6560 N.ar    1  UNL1       -0.2551
     18 N          17.7066   70.4575   -8.9299 N.ar    1  UNL1       -0.2743
     19 C          17.2755   70.5836   -7.6031 C.ar    1  UNL1        0.3323
     20 C          19.6280   70.8842   -7.0684 C.ar    1  UNL1        0.0869
     21 C          20.0227   70.7605   -8.3373 C.ar    1  UNL1        0.0795
     22 C          19.0123   70.5268   -9.3893 C.ar    1  UNL1        0.2626
     23 H          17.0088   70.3020   -9.6071 H       1  UNL1        0.1734
     24 O          20.9635   71.8940   -1.3404 O.3     1  UNL1       -0.2703
     25 P          21.3585   73.3377   -0.7298 P.3     1  UNL1        0.2208
     26 O          20.0344   74.2283   -0.9967 O.co2   1  UNL1       -0.4371
     27 O          22.6211   73.9205   -1.2954 O.2     1  UNL1       -0.5170
     28 O          21.3830   73.1125    0.8682 O.3     1  UNL1       -0.2858
     29 O          22.8953   74.6430    1.8617 O.3     1  UNL1       -0.3258
     30 O          21.9681   72.3784    5.1878 O.3     1  UNL1       -0.3794
     31 O          20.9333   75.0474    4.9562 O.3     1  UNL1       -0.3794
     32 O          22.2724   71.0991    2.6090 O.3     1  UNL1       -0.3775
     33 C          21.7096   73.0265    3.9394 C.3     1  UNL1        0.1715
     34 C          21.9593   74.5255    4.1164 C.3     1  UNL1        0.1694
     35 C          22.6401   72.4484    2.8748 C.3     1  UNL1        0.1967
     36 C          21.9627   75.2501    2.7636 C.3     1  UNL1        0.1761
     37 C          22.6041   73.2716    1.5859 C.3     1  UNL1        0.2704
     38 H          21.3802   72.7405    5.8680 H       1  UNL1        0.2105
     39 H          20.9417   74.5811    5.8069 H       1  UNL1        0.2105
     40 H          22.2995   70.5885    3.4326 H       1  UNL1        0.2106
     41 O          23.0946   76.8713    4.1050 O.3     1  UNL1       -0.3794
     42 C          22.3654   76.7167    2.9014 C.3     1  UNL1        0.1693
     43 H          23.3579   77.7999    4.2058 H       1  UNL1        0.2105
@<TRIPOS>UNITY_ATOM_ATTR
2 1
charge -1
26 1
charge -1
@<TRIPOS>BOND
     1    25    28    1
     2    25    24    1
     3    25    26    1
     4    25    27    2
     5     1     4    1
     6     1    24    1
     7     1     2    1
     8     1     3    2
     9     6    11    1
    10     6    12    1
    11    29    36    1
    12    29    37    1
    13     7     9    1
    14     7    13    1
    15     8    10    1
    16     8    14    1
    17    28    37    1
    18     4     5    1
    19    30    33    1
    20    30    38    1
    21    31    34    1
    22    31    39    1
    23    32    35    1
    24    32    40    1
    25    41    42    1
    26    41    43    1
    27    15    19    2
    28    16    22    2
    29    17    12    1
    30    17    19   ar
    31    17    20   ar
    32    18    19   ar
    33    18    22   ar
    34    18    23    1
    35     9    10    1
    36     9    11    1
    37    10    12    1
    38    11     5    1
    39    33    34    1
    40    33    35    1
    41    34    36    1
    42    35    37    1
    43    36    42    1
    44    20    21   ar
    45    21    22   ar
@<TRIPOS>MOLECULE
*****
 43 45 0 0 0
SMALL
GASTEIGER

@<TRIPOS>ATOM
      1 P          22.5420   71.1901   -1.9149 P.3     1  UNL1        0.2189
      2 O          23.3894   70.6584   -3.1864 O.co2   1  UNL1       -0.4371
      3 O          22.2256   70.1474   -0.8834 O.2     1  UNL1       -0.5170
      4 O          21.2661   71.9298   -2.5804 O.3     1  UNL1       -0.3112
      5 C          20.5610   71.2635   -3.6132 C.3     1  UNL1        0.1811
      6 O          18.6161   72.0621   -4.7766 O.3     1  UNL1       -0.3308
      7 O          17.0159   70.8439   -2.5526 O.3     1  UNL1       -0.3794
      8 O          16.7760   68.9927   -4.5406 O.3     1  UNL1       -0.3779
      9 C          18.2201   70.3767   -3.1584 C.3     1  UNL1        0.1713
     10 C          17.9311   69.8066   -4.5314 C.3     1  UNL1        0.1895
     11 C          19.0788   71.5902   -3.4922 C.3     1  UNL1        0.1764
     12 C          17.7664   71.0648   -5.3668 C.3     1  UNL1        0.2383
     13 H          16.4512   70.0865   -2.3301 H       1  UNL1        0.2105
     14 H          16.9306   68.2055   -3.9955 H       1  UNL1        0.2106
     15 O          15.9621   70.6248   -7.4948 O.2     1  UNL1       -0.2464
     16 O          19.3795   70.3260  -10.5727 O.2     1  UNL1       -0.2670
     17 N          18.1573   70.8693   -6.7344 N.ar    1  UNL1       -0.2551
     18 N          17.6651   70.4766   -9.0256 N.ar    1  UNL1       -0.2743
     19 C          17.1724   70.6550   -7.7266 C.ar    1  UNL1        0.3323
     20 C          19.5041   70.8914   -7.0801 C.ar    1  UNL1        0.0869
     21 C          19.9576   70.7182   -8.3233 C.ar    1  UNL1        0.0795
     22 C          18.9940   70.4887   -9.4191 C.ar    1  UNL1        0.2626
     23 H          16.9973   70.3253   -9.7334 H       1  UNL1        0.1734
     24 O          23.4352   72.4235   -1.3728 O.3     1  UNL1       -0.2703
     25 P          23.0541   73.9704   -1.0993 P.3     1  UNL1        0.2208
     26 O          24.4299   74.5946   -0.5204 O.co2   1  UNL1       -0.4371
     27 O          21.8630   74.1620   -0.2057 O.2     1  UNL1       -0.5170
     28 O          22.8989   74.6190   -2.5690 O.3     1  UNL1       -0.2858
     29 O          23.2942   73.6367   -4.6893 O.3     1  UNL1       -0.3258
     30 O          24.5322   77.4904   -5.5063 O.3     1  UNL1       -0.3794
     31 O          22.0571   76.5333   -6.6044 O.3     1  UNL1       -0.3794
     32 O          25.1152   76.3017   -2.9321 O.3     1  UNL1       -0.3775
     33 C          23.7237   76.4847   -4.8895 C.3     1  UNL1        0.1715
     34 C          23.0263   75.6866   -5.9929 C.3     1  UNL1        0.1694
     35 C          24.6157   75.5734   -4.0486 C.3     1  UNL1        0.1967
     36 C          22.3552   74.4281   -5.4266 C.3     1  UNL1        0.1761
     37 C          23.8645   74.3275   -3.5760 C.3     1  UNL1        0.2704
     38 H          23.9717   78.0727   -6.0413 H       1  UNL1        0.2105
     39 H          22.4938   77.3245   -6.9574 H       1  UNL1        0.2105
     40 H          25.5889   77.0877   -3.2445 H       1  UNL1        0.2106
     41 O          22.8523   72.7927   -7.0961 O.3     1  UNL1       -0.3794
     42 C          21.7891   73.5363   -6.5295 C.3     1  UNL1        0.1693
     43 H          22.5068   72.2203   -7.7995 H       1  UNL1        0.2105
@<TRIPOS>UNITY_ATOM_ATTR
2 1
charge -1
26 1
charge -1
@<TRIPOS>BOND
     1    25    28    1
     2    25    24    1
     3    25    26    1
     4    25    27    2
     5     1     4    1
     6     1    24    1
     7     1     2    1
     8     1     3    2
     9     6    11    1
    10     6    12    1
    11    29    36    1
    12    29    37    1
    13     7     9    1
    14     7    13    1
    15     8    10    1
    16     8    14    1
    17    28    37    1
    18     4     5    1
    19    30    33    1
    20    30    38    1
    21    31    34    1
    22    31    39    1
    23    32    35    1
    24    32    40    1
    25    41    42    1
    26    41    43    1
    27    15    19    2
    28    16    22    2
    29    17    12    1
    30    17    19   ar
    31    17    20   ar
    32    18    19   ar
    33    18    22   ar
    34    18    23    1
    35     9    10    1
    36     9    11    1
    37    10    12    1
    38    11     5    1
    39    33    34    1
    40    33    35    1
    41    34    36    1
    42    35    37    1
    43    36    42    1
    44    20    21   ar
    45    21    22   ar
@<TRIPOS>MOLECULE
*****
 43 45 0 0 0
SMALL
GASTEIGER

@<TRIPOS>ATOM
      1 P          21.7339   70.6312   -1.2382 P.3     1  UNL1        0.2189
      2 O          23.3407   70.5787   -1.0569 O.co2   1  UNL1       -0.4371
      3 O          21.0634   69.2926   -1.3385 O.2     1  UNL1       -0.5170
      4 O          21.5175   71.6217   -2.4992 O.3     1  UNL1       -0.3112
      5 C          20.7683   71.1525   -3.6067 C.3     1  UNL1        0.1811
      6 O          18.8767   72.1125   -4.7353 O.3     1  UNL1       -0.3308
      7 O          17.2237   71.0534   -2.4688 O.3     1  UNL1       -0.3794
      8 O          16.7790   69.2187   -4.4368 O.3     1  UNL1       -0.3779
      9 C          18.3688   70.4783   -3.0961 C.3     1  UNL1        0.1713
     10 C          18.0012   69.9276   -4.4582 C.3     1  UNL1        0.1895
     11 C          19.3236   71.6093   -3.4573 C.3     1  UNL1        0.1764
     12 C          17.9300   71.1905   -5.2998 C.3     1  UNL1        0.2383
     13 H          16.5995   70.3501   -2.2286 H       1  UNL1        0.2105
     14 H          16.8754   68.4242   -3.8889 H       1  UNL1        0.2106
     15 O          16.0972   70.3554   -7.2800 O.2     1  UNL1       -0.2464
     16 O          19.3570   70.3094  -10.5377 O.2     1  UNL1       -0.2670
     17 N          18.2726   70.9531   -6.6737 N.ar    1  UNL1       -0.2551
     18 N          17.7218   70.3334   -8.9005 N.ar    1  UNL1       -0.2743
     19 C          17.2774   70.5350   -7.5876 C.ar    1  UNL1        0.3323
     20 C          19.5828   71.1353   -7.1026 C.ar    1  UNL1        0.0869
     21 C          19.9906   70.9375   -8.3579 C.ar    1  UNL1        0.0795
     22 C          19.0132   70.4998   -9.3753 C.ar    1  UNL1        0.2626
     23 H          17.0460   70.0415   -9.5547 H       1  UNL1        0.1734
     24 O          21.2557   71.5308    0.0167 O.3     1  UNL1       -0.2703
     25 P          21.5578   73.0735    0.3933 P.3     1  UNL1        0.2208
     26 O          20.4580   73.8883   -0.4695 O.co2   1  UNL1       -0.4371
     27 O          22.9764   73.5001    0.1491 O.2     1  UNL1       -0.5170
     28 O          21.0681   73.2239    1.9238 O.3     1  UNL1       -0.2858
     29 O          20.2034   75.1233    3.0468 O.3     1  UNL1       -0.3258
     30 O          22.3112   73.4182    6.1614 O.3     1  UNL1       -0.3794
     31 O          19.4411   73.3140    6.1668 O.3     1  UNL1       -0.3794
     32 O          23.3995   73.3618    3.4797 O.3     1  UNL1       -0.3775
     33 C          21.5123   73.4192    4.9751 C.3     1  UNL1        0.1715
     34 C          20.1971   74.1376    5.2832 C.3     1  UNL1        0.1694
     35 C          22.2712   74.1405    3.8629 C.3     1  UNL1        0.1967
     36 C          19.4029   74.4139    3.9995 C.3     1  UNL1        0.1761
     37 C          21.3767   74.4098    2.6515 C.3     1  UNL1        0.2704
     38 H          21.8352   72.9612    6.8714 H       1  UNL1        0.2105
     39 H          19.9540   73.1467    6.9731 H       1  UNL1        0.2105
     40 H          23.9580   73.1984    4.2551 H       1  UNL1        0.2106
     41 O          18.3408   75.9427    5.4973 O.3     1  UNL1       -0.3794
     42 C          18.1649   75.2675    4.2655 C.3     1  UNL1        0.1693
     43 H          17.5605   76.4902    5.6795 H       1  UNL1        0.2105
@<TRIPOS>UNITY_ATOM_ATTR
2 1
charge -1
26 1
charge -1
@<TRIPOS>BOND
     1    25    28    1
     2    25    24    1
     3    25    26    1
     4    25    27    2
     5     1     4    1
     6     1    24    1
     7     1     2    1
     8     1     3    2
     9     6    11    1
    10     6    12    1
    11    29    36    1
    12    29    37    1
    13     7     9    1
    14     7    13    1
    15     8    10    1
    16     8    14    1
    17    28    37    1
    18     4     5    1
    19    30    33    1
    20    30    38    1
    21    31    34    1
    22    31    39    1
    23    32    35    1
    24    32    40    1
    25    41    42    1
    26    41    43    1
    27    15    19    2
    28    16    22    2
    29    17    12    1
    30    17    19   ar
    31    17    20   ar
    32    18    19   ar
    33    18    22   ar
    34    18    23    1
    35     9    10    1
    36     9    11    1
    37    10    12    1
    38    11     5    1
    39    33    34    1
    40    33    35    1
    41    34    36    1
    42    35    37    1
    43    36    42    1
    44    20    21   ar
    45    21    22   ar
@<TRIPOS>MOLECULE
*****
 43 45 0 0 0
SMALL
GASTEIGER

@<TRIPOS>ATOM
      1 P          22.5297   73.1481   -4.5023 P.3     1  UNL1        0.2189
      2 O          22.7231   73.9698   -5.8824 O.co2   1  UNL1       -0.4371
      3 O          23.7843   72.5440   -3.9433 O.2     1  UNL1       -0.5170
      4 O          21.3359   72.1075   -4.8338 O.3     1  UNL1       -0.3112
      5 C          20.7842   71.3506   -3.7706 C.3     1  UNL1        0.1811
      6 O          18.8213   72.1979   -4.8674 O.3     1  UNL1       -0.3308
      7 O          17.2761   71.0920   -2.5479 O.3     1  UNL1       -0.3794
      8 O          16.8790   69.2081   -4.4792 O.3     1  UNL1       -0.3779
      9 C          18.4338   70.5653   -3.1940 C.3     1  UNL1        0.1713
     10 C          18.0632   69.9766   -4.5393 C.3     1  UNL1        0.1895
     11 C          19.3222   71.7369   -3.5934 C.3     1  UNL1        0.1764
     12 C          17.9094   71.2215   -5.3964 C.3     1  UNL1        0.2383
     13 H          16.6935   70.3622   -2.2833 H       1  UNL1        0.2105
     14 H          17.0277   68.4277   -3.9227 H       1  UNL1        0.2106
     15 O          16.0384   70.4288   -7.3582 O.2     1  UNL1       -0.2464
     16 O          19.2603   70.3256  -10.6520 O.2     1  UNL1       -0.2670
     17 N          18.2319   70.9809   -6.7746 N.ar    1  UNL1       -0.2551
     18 N          17.6441   70.3782   -8.9967 N.ar    1  UNL1       -0.2743
     19 C          17.2184   70.5853   -7.6784 C.ar    1  UNL1        0.3323
     20 C          19.5408   71.1377   -7.2177 C.ar    1  UNL1        0.0869
     21 C          19.9306   70.9350   -8.4779 C.ar    1  UNL1        0.0795
     22 C          18.9333   70.5198   -9.4854 C.ar    1  UNL1        0.2626
     23 H          16.9554   70.1017   -9.6440 H       1  UNL1        0.1734
     24 O          21.8133   74.2266   -3.5345 O.3     1  UNL1       -0.2703
     25 P          22.3015   74.8968   -2.1469 P.3     1  UNL1        0.2208
     26 O          21.2035   76.0566   -1.8885 O.co2   1  UNL1       -0.4371
     27 O          23.7222   75.3818   -2.1641 O.2     1  UNL1       -0.5170
     28 O          21.9890   73.7818   -1.0225 O.3     1  UNL1       -0.2858
     29 O          23.2617   73.7396    0.9763 O.3     1  UNL1       -0.3258
     30 O          21.8549   69.8575    1.0077 O.3     1  UNL1       -0.3794
     31 O          20.7909   71.7663    2.8711 O.3     1  UNL1       -0.3794
     32 O          22.6329   71.0912   -1.4928 O.3     1  UNL1       -0.3775
     33 C          21.7918   71.2642    0.7576 C.3     1  UNL1        0.1715
     34 C          21.9605   71.9963    2.0904 C.3     1  UNL1        0.1694
     35 C          22.9074   71.6493   -0.2123 C.3     1  UNL1        0.1967
     36 C          22.1708   73.5008    1.8733 C.3     1  UNL1        0.1761
     37 C          23.0648   73.1672   -0.3182 C.3     1  UNL1        0.2704
     38 H          21.1489   69.6063    1.6224 H       1  UNL1        0.2105
     39 H          20.6694   70.8125    3.0004 H       1  UNL1        0.2105
     40 H          22.5357   70.1300   -1.4124 H       1  UNL1        0.2106
     41 O          23.8565   73.9879    3.4950 O.3     1  UNL1       -0.3794
     42 C          22.4979   74.2265    3.1765 C.3     1  UNL1        0.1693
     43 H          24.0790   74.4440    4.3221 H       1  UNL1        0.2105
@<TRIPOS>UNITY_ATOM_ATTR
2 1
charge -1
26 1
charge -1
@<TRIPOS>BOND
     1    25    28    1
     2    25    24    1
     3    25    26    1
     4    25    27    2
     5     1     4    1
     6     1    24    1
     7     1     2    1
     8     1     3    2
     9     6    11    1
    10     6    12    1
    11    29    36    1
    12    29    37    1
    13     7     9    1
    14     7    13    1
    15     8    10    1
    16     8    14    1
    17    28    37    1
    18     4     5    1
    19    30    33    1
    20    30    38    1
    21    31    34    1
    22    31    39    1
    23    32    35    1
    24    32    40    1
    25    41    42    1
    26    41    43    1
    27    15    19    2
    28    16    22    2
    29    17    12    1
    30    17    19   ar
    31    17    20   ar
    32    18    19   ar
    33    18    22   ar
    34    18    23    1
    35     9    10    1
    36     9    11    1
    37    10    12    1
    38    11     5    1
    39    33    34    1
    40    33    35    1
    41    34    36    1
    42    35    37    1
    43    36    42    1
    44    20    21   ar
    45    21    22   ar
@<TRIPOS>MOLECULE
*****
 43 45 0 0 0
SMALL
GASTEIGER

@<TRIPOS>ATOM
      1 P          23.1020   72.5465   -3.5268 P.3     1  UNL1        0.2189
      2 O          23.3285   70.9933   -3.1350 O.co2   1  UNL1       -0.4371
      3 O          24.3156   73.2489   -4.0608 O.2     1  UNL1       -0.5170
      4 O          22.4458   73.1912   -2.1958 O.3     1  UNL1       -0.3112
      5 C          22.3309   72.3817   -1.0385 C.3     1  UNL1        0.1811
      6 O          21.0704   72.4529    1.0060 O.3     1  UNL1       -0.3308
      7 O          18.9601   73.8921   -0.5644 O.3     1  UNL1       -0.3794
      8 O          20.2004   75.9240    0.7660 O.3     1  UNL1       -0.3779
      9 C          20.3801   73.9739   -0.6750 C.3     1  UNL1        0.1713
     10 C          20.9533   74.7618    0.4844 C.3     1  UNL1        0.1895
     11 C          20.9509   72.5831   -0.4276 C.3     1  UNL1        0.1764
     12 C          20.9025   73.7449    1.6121 C.3     1  UNL1        0.2383
     13 H          18.5729   74.7686   -0.7188 H       1  UNL1        0.2105
     14 H          20.2643   76.5396    0.0191 H       1  UNL1        0.2106
     15 O          20.5795   73.4228    4.3995 O.2     1  UNL1       -0.2464
     16 O          24.9733   74.5442    5.2231 O.2     1  UNL1       -0.2670
     17 N          21.9455   73.9459    2.5781 N.ar    1  UNL1       -0.2551
     18 N          22.7676   73.9813    4.8073 N.ar    1  UNL1       -0.2743
     19 C          21.6789   73.7589    3.9545 C.ar    1  UNL1        0.3323
     20 C          23.2161   74.3237    2.1577 C.ar    1  UNL1        0.0869
     21 C          24.2432   74.5331    2.9838 C.ar    1  UNL1        0.0795
     22 C          24.0487   74.3591    4.4377 C.ar    1  UNL1        0.2626
     23 H          22.6053   73.8573    5.7707 H       1  UNL1        0.1734
     24 O          21.8547   72.4843   -4.5532 O.3     1  UNL1       -0.2703
     25 P          21.5465   73.3213   -5.9013 P.3     1  UNL1        0.2208
     26 O          22.7432   72.8775   -6.8954 O.co2   1  UNL1       -0.4371
     27 O          21.4324   74.8037   -5.6926 O.2     1  UNL1       -0.5170
     28 O          20.2257   72.6292   -6.5189 O.3     1  UNL1       -0.2858
     29 O          19.2731   70.4958   -6.1216 O.3     1  UNL1       -0.3258
     30 O          18.5016   70.8203  -10.1651 O.3     1  UNL1       -0.3794
     31 O          16.3431   71.0607   -8.2860 O.3     1  UNL1       -0.3794
     32 O          21.0003   71.8082   -9.0881 O.3     1  UNL1       -0.3775
     33 C          18.6609   71.2982   -8.8266 C.3     1  UNL1        0.1715
     34 C          17.6402   70.5846   -7.9380 C.3     1  UNL1        0.1694
     35 C          20.0836   71.0012   -8.3566 C.3     1  UNL1        0.1967
     36 C          17.9232   70.8427   -6.4519 C.3     1  UNL1        0.1761
     37 C          20.2447   71.2443   -6.8549 C.3     1  UNL1        0.2704
     38 H          17.6004   71.0062  -10.4698 H       1  UNL1        0.2105
     39 H          16.1771   70.8920   -9.2269 H       1  UNL1        0.2105
     40 H          20.8886   71.6449  -10.0372 H       1  UNL1        0.2106
     41 O          17.8069   69.4374   -4.5230 O.3     1  UNL1       -0.3794
     42 C          17.0153   70.0152   -5.5447 C.3     1  UNL1        0.1693
     43 H          17.2422   68.9081   -3.9376 H       1  UNL1        0.2105
@<TRIPOS>UNITY_ATOM_ATTR
2 1
charge -1
26 1
charge -1
@<TRIPOS>BOND
     1    25    28    1
     2    25    24    1
     3    25    26    1
     4    25    27    2
     5     1     4    1
     6     1    24    1
     7     1     2    1
     8     1     3    2
     9     6    11    1
    10     6    12    1
    11    29    36    1
    12    29    37    1
    13     7     9    1
    14     7    13    1
    15     8    10    1
    16     8    14    1
    17    28    37    1
    18     4     5    1
    19    30    33    1
    20    30    38    1
    21    31    34    1
    22    31    39    1
    23    32    35    1
    24    32    40    1
    25    41    42    1
    26    41    43    1
    27    15    19    2
    28    16    22    2
    29    17    12    1
    30    17    19   ar
    31    17    20   ar
    32    18    19   ar
    33    18    22   ar
    34    18    23    1
    35     9    10    1
    36     9    11    1
    37    10    12    1
    38    11     5    1
    39    33    34    1
    40    33    35    1
    41    34    36    1
    42    35    37    1
    43    36    42    1
    44    20    21   ar
    45    21    22   ar
@<TRIPOS>MOLECULE
*****
 43 45 0 0 0
SMALL
GASTEIGER

@<TRIPOS>ATOM
      1 P          21.9452   70.9087   -1.6390 P.3     1  UNL1        0.2189
      2 O          22.7963   70.6937   -2.9980 O.co2   1  UNL1       -0.4371
      3 O          21.7197   69.6659   -0.8291 O.2     1  UNL1       -0.5170
      4 O          20.6099   71.6765   -2.1343 O.3     1  UNL1       -0.3112
      5 C          20.1447   71.4422   -3.4520 C.3     1  UNL1        0.1811
      6 O          18.3521   72.2041   -4.8590 O.3     1  UNL1       -0.3308
      7 O          16.4988   71.0300   -2.8152 O.3     1  UNL1       -0.3794
      8 O          16.5032   69.1321   -4.7734 O.3     1  UNL1       -0.3779
      9 C          17.7680   70.5548   -3.2609 C.3     1  UNL1        0.1713
     10 C          17.6472   69.9516   -4.6448 C.3     1  UNL1        0.1895
     11 C          18.6581   71.7644   -3.5177 C.3     1  UNL1        0.1764
     12 C          17.5815   71.1893   -5.5233 C.3     1  UNL1        0.2383
     13 H          15.9130   70.2753   -2.6443 H       1  UNL1        0.2105
     14 H          16.5928   68.3585   -4.1952 H       1  UNL1        0.2106
     15 O          16.0696   70.4415   -7.7889 O.2     1  UNL1       -0.2464
     16 O          19.8089   70.3509  -10.4817 O.2     1  UNL1       -0.2670
     17 N          18.1343   70.9641   -6.8291 N.ar    1  UNL1       -0.2551
     18 N          17.9327   70.3972   -9.1279 N.ar    1  UNL1       -0.2743
     19 C          17.2883   70.5907   -7.8993 C.ar    1  UNL1        0.3323
     20 C          19.5009   71.1140   -7.0384 C.ar    1  UNL1        0.0869
     21 C          20.1000   70.9245   -8.2158 C.ar    1  UNL1        0.0795
     22 C          19.2876   70.5327   -9.3857 C.ar    1  UNL1        0.2626
     23 H          17.3634   70.1362   -9.8879 H       1  UNL1        0.1734
     24 O          22.7694   72.0699   -0.8739 O.3     1  UNL1       -0.2703
     25 P          22.3820   72.9803    0.4044 P.3     1  UNL1        0.2208
     26 O          22.2841   71.9053    1.6095 O.co2   1  UNL1       -0.4371
     27 O          21.1471   73.8129    0.2155 O.2     1  UNL1       -0.5170
     28 O          23.7182   73.8281    0.7221 O.3     1  UNL1       -0.2858
     29 O          24.5083   74.9647   -1.2016 O.3     1  UNL1       -0.3258
     30 O          20.5980   76.2916   -1.2107 O.3     1  UNL1       -0.3794
     31 O          21.4519   74.3821   -3.1786 O.3     1  UNL1       -0.3794
     32 O          22.0113   75.9804    1.2963 O.3     1  UNL1       -0.3775
     33 C          21.6540   75.3502   -1.0008 C.3     1  UNL1        0.1715
     34 C          22.3503   75.1040   -2.3407 C.3     1  UNL1        0.1694
     35 C          22.6371   75.9221    0.0190 C.3     1  UNL1        0.1967
     36 C          23.6538   74.3165   -2.1511 C.3     1  UNL1        0.1761
     37 C          23.9196   75.0917    0.0942 C.3     1  UNL1        0.2704
     38 H          19.9700   75.9344   -1.8569 H       1  UNL1        0.2105
     39 H          20.6329   74.8899   -3.2898 H       1  UNL1        0.2105
     40 H          21.2009   76.5090    1.2354 H       1  UNL1        0.2106
     41 O          23.9878   73.0517   -4.1505 O.3     1  UNL1       -0.3794
     42 C          24.4436   74.1960   -3.4525 C.3     1  UNL1        0.1693
     43 H          24.4815   72.9624   -4.9812 H       1  UNL1        0.2105
@<TRIPOS>UNITY_ATOM_ATTR
2 1
charge -1
26 1
charge -1
@<TRIPOS>BOND
     1    25    28    1
     2    25    24    1
     3    25    26    1
     4    25    27    2
     5     1     4    1
     6     1    24    1
     7     1     2    1
     8     1     3    2
     9     6    11    1
    10     6    12    1
    11    29    36    1
    12    29    37    1
    13     7     9    1
    14     7    13    1
    15     8    10    1
    16     8    14    1
    17    28    37    1
    18     4     5    1
    19    30    33    1
    20    30    38    1
    21    31    34    1
    22    31    39    1
    23    32    35    1
    24    32    40    1
    25    41    42    1
    26    41    43    1
    27    15    19    2
    28    16    22    2
    29    17    12    1
    30    17    19   ar
    31    17    20   ar
    32    18    19   ar
    33    18    22   ar
    34    18    23    1
    35     9    10    1
    36     9    11    1
    37    10    12    1
    38    11     5    1
    39    33    34    1
    40    33    35    1
    41    34    36    1
    42    35    37    1
    43    36    42    1
    44    20    21   ar
    45    21    22   ar
@<TRIPOS>MOLECULE
*****
 43 45 0 0 0
SMALL
GASTEIGER

@<TRIPOS>ATOM
      1 P          21.5260   73.0085   -5.9026 P.3     1  UNL1        0.2189
      2 O          21.2464   74.4727   -5.2738 O.co2   1  UNL1       -0.4371
      3 O          22.7021   72.9316   -6.8312 O.2     1  UNL1       -0.5170
      4 O          20.1007   72.5796   -6.5370 O.3     1  UNL1       -0.3112
      5 C          19.6706   71.2377   -6.3879 C.3     1  UNL1        0.1811
      6 O          17.4911   70.9456   -7.3565 O.3     1  UNL1       -0.3308
      7 O          18.8746   70.9767  -10.0165 O.3     1  UNL1       -0.3794
      8 O          17.8621   73.5029   -9.8435 O.3     1  UNL1       -0.3779
      9 C          19.1726   71.7201   -8.8359 C.3     1  UNL1        0.1713
     10 C          18.1553   72.8246   -8.6391 C.3     1  UNL1        0.1895
     11 C          18.9030   70.8217   -7.6352 C.3     1  UNL1        0.1764
     12 C          16.9614   72.0597   -8.0934 C.3     1  UNL1        0.2383
     13 H          19.0395   71.5298  -10.7968 H       1  UNL1        0.2105
     14 H          18.6526   73.9739  -10.1502 H       1  UNL1        0.2106
     15 O          14.9673   73.8637   -8.9576 O.2     1  UNL1       -0.2464
     16 O          13.9284   75.0726   -4.6332 O.2     1  UNL1       -0.2670
     17 N          16.1543   72.8585   -7.2147 N.ar    1  UNL1       -0.2551
     18 N          14.4515   74.4641   -6.8037 N.ar    1  UNL1       -0.2743
     19 C          15.1811   73.7339   -7.7505 C.ar    1  UNL1        0.3323
     20 C          16.3315   72.7691   -5.8383 C.ar    1  UNL1        0.0869
     21 C          15.6284   73.4732   -4.9489 C.ar    1  UNL1        0.0795
     22 C          14.5915   74.4110   -5.4259 C.ar    1  UNL1        0.2626
     23 H          13.7681   75.0807   -7.1537 H       1  UNL1        0.1734
     24 O          21.6394   72.0665   -4.5939 O.3     1  UNL1       -0.2703
     25 P          22.7989   71.9393   -3.4748 P.3     1  UNL1        0.2208
     26 O          23.9261   72.9800   -3.9885 O.co2   1  UNL1       -0.4371
     27 O          23.2988   70.5396   -3.2631 O.2     1  UNL1       -0.5170
     28 O          22.1738   72.6325   -2.1582 O.3     1  UNL1       -0.2858
     29 O          21.3257   71.5243   -0.2426 O.3     1  UNL1       -0.3258
     30 O          18.8961   74.8629   -0.2031 O.3     1  UNL1       -0.3794
     31 O          20.9754   74.5992    1.7603 O.3     1  UNL1       -0.3794
     32 O          19.6107   73.6269   -2.7213 O.3     1  UNL1       -0.3775
     33 C          20.1086   74.1364   -0.4205 C.3     1  UNL1        0.1715
     34 C          20.5523   73.5338    0.9140 C.3     1  UNL1        0.1694
     35 C          19.8539   73.0362   -1.4491 C.3     1  UNL1        0.1967
     36 C          21.6916   72.5250    0.7147 C.3     1  UNL1        0.1761
     37 C          21.0280   72.0593   -1.5338 C.3     1  UNL1        0.2704
     38 H          19.0511   75.5634    0.4487 H       1  UNL1        0.2105
     39 H          20.2471   75.2293    1.8775 H       1  UNL1        0.2105
     40 H          18.8651   74.2429   -2.6544 H       1  UNL1        0.2106
     41 O          20.9499   71.9127    2.9020 O.3     1  UNL1       -0.3794
     42 C          22.0430   71.7960    2.0098 C.3     1  UNL1        0.1693
     43 H          21.1592   71.4530    3.7306 H       1  UNL1        0.2105
@<TRIPOS>UNITY_ATOM_ATTR
2 1
charge -1
26 1
charge -1
@<TRIPOS>BOND
     1    25    28    1
     2    25    24    1
     3    25    26    1
     4    25    27    2
     5     1     4    1
     6     1    24    1
     7     1     2    1
     8     1     3    2
     9     6    11    1
    10     6    12    1
    11    29    36    1
    12    29    37    1
    13     7     9    1
    14     7    13    1
    15     8    10    1
    16     8    14    1
    17    28    37    1
    18     4     5    1
    19    30    33    1
    20    30    38    1
    21    31    34    1
    22    31    39    1
    23    32    35    1
    24    32    40    1
    25    41    42    1
    26    41    43    1
    27    15    19    2
    28    16    22    2
    29    17    12    1
    30    17    19   ar
    31    17    20   ar
    32    18    19   ar
    33    18    22   ar
    34    18    23    1
    35     9    10    1
    36     9    11    1
    37    10    12    1
    38    11     5    1
    39    33    34    1
    40    33    35    1
    41    34    36    1
    42    35    37    1
    43    36    42    1
    44    20    21   ar
    45    21    22   ar
@<TRIPOS>MOLECULE
*****
 43 45 0 0 0
SMALL
GASTEIGER

@<TRIPOS>ATOM
      1 P          22.8623   72.5918   -3.7811 P.3     1  UNL1        0.2189
      2 O          23.0146   72.9259   -5.3568 O.co2   1  UNL1       -0.4371
      3 O          23.5414   71.3315   -3.3319 O.2     1  UNL1       -0.5170
      4 O          21.2667   72.6611   -3.5219 O.3     1  UNL1       -0.3112
      5 C          20.5310   71.4502   -3.5074 C.3     1  UNL1        0.1811
      6 O          18.5895   72.2459   -4.6785 O.3     1  UNL1       -0.3308
      7 O          16.9820   71.0196   -2.4642 O.3     1  UNL1       -0.3794
      8 O          16.7561   69.1715   -4.4567 O.3     1  UNL1       -0.3779
      9 C          18.1902   70.5566   -3.0653 C.3     1  UNL1        0.1713
     10 C          17.9091   69.9882   -4.4406 C.3     1  UNL1        0.1895
     11 C          19.0474   71.7728   -3.3928 C.3     1  UNL1        0.1764
     12 C          17.7452   71.2476   -5.2745 C.3     1  UNL1        0.2383
     13 H          16.4182   70.2604   -2.2458 H       1  UNL1        0.2105
     14 H          16.9102   68.3836   -3.9123 H       1  UNL1        0.2106
     15 O          16.0242   70.3502   -7.3265 O.2     1  UNL1       -0.2464
     16 O          19.3811   70.5461  -10.4784 O.2     1  UNL1       -0.2670
     17 N          18.1430   71.0555   -6.6406 N.ar    1  UNL1       -0.2551
     18 N          17.6971   70.4486   -8.8943 N.ar    1  UNL1       -0.2743
     19 C          17.2015   70.6005   -7.5930 C.ar    1  UNL1        0.3323
     20 C          19.4537   71.3179   -7.0241 C.ar    1  UNL1        0.0869
     21 C          19.9107   71.1668   -8.2689 C.ar    1  UNL1        0.0795
     22 C          18.9912   70.6951   -9.3244 C.ar    1  UNL1        0.2626
     23 H          17.0592   70.1323   -9.5746 H       1  UNL1        0.1734
     24 O          23.4047   73.9384   -3.0700 O.3     1  UNL1       -0.2703
     25 P          22.6883   74.9571   -2.0396 P.3     1  UNL1        0.2208
     26 O          21.1526   74.9803   -2.5482 O.co2   1  UNL1       -0.4371
     27 O          23.3353   76.3096   -1.9615 O.2     1  UNL1       -0.5170
     28 O          22.6418   74.1561   -0.6392 O.3     1  UNL1       -0.2858
     29 O          21.1856   72.3060   -0.3683 O.3     1  UNL1       -0.3258
     30 O          21.7317   73.3027    3.6015 O.3     1  UNL1       -0.3794
     31 O          22.9718   70.9351    2.5505 O.3     1  UNL1       -0.3794
     32 O          21.4987   75.3885    1.6079 O.3     1  UNL1       -0.3775
     33 C          22.1157   73.1457    2.2328 C.3     1  UNL1        0.1715
     34 C          21.9657   71.6698    1.8589 C.3     1  UNL1        0.1694
     35 C          21.2147   74.0161    1.3587 C.3     1  UNL1        0.1967
     36 C          22.1012   71.4656    0.3440 C.3     1  UNL1        0.1761
     37 C          21.3926   73.6992   -0.1272 C.3     1  UNL1        0.2704
     38 H          22.3002   72.7530    4.1620 H       1  UNL1        0.2105
     39 H          22.8753   71.0730    3.5060 H       1  UNL1        0.2105
     40 H          21.3822   75.5765    2.5518 H       1  UNL1        0.2106
     41 O          22.9198   69.2228    0.2509 O.3     1  UNL1       -0.3794
     42 C          21.7990   70.0266   -0.0684 C.3     1  UNL1        0.1693
     43 H          22.7417   68.3040   -0.0058 H       1  UNL1        0.2105
@<TRIPOS>UNITY_ATOM_ATTR
2 1
charge -1
26 1
charge -1
@<TRIPOS>BOND
     1    25    28    1
     2    25    24    1
     3    25    26    1
     4    25    27    2
     5     1     4    1
     6     1    24    1
     7     1     2    1
     8     1     3    2
     9     6    11    1
    10     6    12    1
    11    29    36    1
    12    29    37    1
    13     7     9    1
    14     7    13    1
    15     8    10    1
    16     8    14    1
    17    28    37    1
    18     4     5    1
    19    30    33    1
    20    30    38    1
    21    31    34    1
    22    31    39    1
    23    32    35    1
    24    32    40    1
    25    41    42    1
    26    41    43    1
    27    15    19    2
    28    16    22    2
    29    17    12    1
    30    17    19   ar
    31    17    20   ar
    32    18    19   ar
    33    18    22   ar
    34    18    23    1
    35     9    10    1
    36     9    11    1
    37    10    12    1
    38    11     5    1
    39    33    34    1
    40    33    35    1
    41    34    36    1
    42    35    37    1
    43    36    42    1
    44    20    21   ar
    45    21    22   ar
@<TRIPOS>MOLECULE
*****
 43 45 0 0 0
SMALL
GASTEIGER

@<TRIPOS>ATOM
      1 P          21.6146   72.8561   -6.2677 P.3     1  UNL1        0.2189
      2 O          21.3674   74.4036   -5.8660 O.co2   1  UNL1       -0.4371
      3 O          22.8539   72.6009   -7.0744 O.2     1  UNL1       -0.5170
      4 O          20.2220   72.4067   -6.9581 O.3     1  UNL1       -0.3112
      5 C          19.7408   71.0956   -6.7187 C.3     1  UNL1        0.1811
      6 O          17.4699   71.2386   -7.4907 O.3     1  UNL1       -0.3308
      7 O          18.5413   70.5145  -10.1960 O.3     1  UNL1       -0.3794
      8 O          18.2051   73.2136  -10.3928 O.3     1  UNL1       -0.3779
      9 C          19.1313   71.3218   -9.1784 C.3     1  UNL1        0.1713
     10 C          18.4428   72.6690   -9.1107 C.3     1  UNL1        0.1895
     11 C          18.7719   70.7127   -7.8289 C.3     1  UNL1        0.1764
     12 C          17.1590   72.3299   -8.3724 C.3     1  UNL1        0.2383
     13 H          18.7573   70.8837  -11.0672 H       1  UNL1        0.2105
     14 H          19.0520   73.4124  -10.8218 H       1  UNL1        0.2106
     15 O          14.6941   73.6310   -8.8298 O.2     1  UNL1       -0.2464
     16 O          15.3746   76.5477   -5.3269 O.2     1  UNL1       -0.2670
     17 N          16.6670   73.4320   -7.5948 N.ar    1  UNL1       -0.2551
     18 N          15.0349   75.0821   -7.0852 N.ar    1  UNL1       -0.2743
     19 C          15.4168   74.0148   -7.9079 C.ar    1  UNL1        0.3323
     20 C          17.4211   73.9237   -6.5350 C.ar    1  UNL1        0.0869
     21 C          17.0433   74.9431   -5.7608 C.ar    1  UNL1        0.0795
     22 C          15.7500   75.6078   -6.0208 C.ar    1  UNL1        0.2626
     23 H          14.1677   75.5040   -7.2847 H       1  UNL1        0.1734
     24 O          21.5734   72.0989   -4.8402 O.3     1  UNL1       -0.2703
     25 P          22.5555   72.1933   -3.5597 P.3     1  UNL1        0.2208
     26 O          23.8647   72.9381   -4.1503 O.co2   1  UNL1       -0.4371
     27 O          22.8377   70.8735   -2.9020 O.2     1  UNL1       -0.5170
     28 O          21.8646   73.2873   -2.5949 O.3     1  UNL1       -0.2858
     29 O          19.6758   72.4845   -2.1694 O.3     1  UNL1       -0.3258
     30 O          21.8478   69.3722   -0.5425 O.3     1  UNL1       -0.3794
     31 O          20.4602   68.9863   -3.0272 O.3     1  UNL1       -0.3794
     32 O          22.7659   72.0983   -0.2181 O.3     1  UNL1       -0.3775
     33 C          21.5737   70.4233   -1.4728 C.3     1  UNL1        0.1715
     34 C          20.2513   70.1092   -2.1753 C.3     1  UNL1        0.1694
     35 C          21.4796   71.7472   -0.7167 C.3     1  UNL1        0.1967
     36 C          19.7568   71.3126   -2.9890 C.3     1  UNL1        0.1761
     37 C          20.9311   72.8665   -1.6035 C.3     1  UNL1        0.2704
     38 H          21.9093   68.5289   -1.0163 H       1  UNL1        0.2105
     39 H          20.7727   68.2335   -2.5011 H       1  UNL1        0.2105
     40 H          23.1020   71.3819    0.3420 H       1  UNL1        0.2106
     41 O          17.5114   70.6385   -2.5279 O.3     1  UNL1       -0.3794
     42 C          18.3640   71.0772   -3.5695 C.3     1  UNL1        0.1693
     43 H          16.6212   70.4849   -2.8826 H       1  UNL1        0.2105
@<TRIPOS>UNITY_ATOM_ATTR
2 1
charge -1
26 1
charge -1
@<TRIPOS>BOND
     1    25    28    1
     2    25    24    1
     3    25    26    1
     4    25    27    2
     5     1     4    1
     6     1    24    1
     7     1     2    1
     8     1     3    2
     9     6    11    1
    10     6    12    1
    11    29    36    1
    12    29    37    1
    13     7     9    1
    14     7    13    1
    15     8    10    1
    16     8    14    1
    17    28    37    1
    18     4     5    1
    19    30    33    1
    20    30    38    1
    21    31    34    1
    22    31    39    1
    23    32    35    1
    24    32    40    1
    25    41    42    1
    26    41    43    1
    27    15    19    2
    28    16    22    2
    29    17    12    1
    30    17    19   ar
    31    17    20   ar
    32    18    19   ar
    33    18    22   ar
    34    18    23    1
    35     9    10    1
    36     9    11    1
    37    10    12    1
    38    11     5    1
    39    33    34    1
    40    33    35    1
    41    34    36    1
    42    35    37    1
    43    36    42    1
    44    20    21   ar
    45    21    22   ar
@<TRIPOS>MOLECULE
*****
 43 45 0 0 0
SMALL
GASTEIGER

@<TRIPOS>ATOM
      1 P          23.0818   72.8230   -3.9804 P.3     1  UNL1        0.2189
      2 O          21.9315   73.7114   -3.2698 O.co2   1  UNL1       -0.4371
      3 O          23.2025   71.4172   -3.4702 O.2     1  UNL1       -0.5170
      4 O          24.4123   73.7344   -3.8503 O.3     1  UNL1       -0.3112
      5 C          24.2617   75.1392   -3.7421 C.3     1  UNL1        0.1811
      6 O          26.3991   74.9976   -2.6535 O.3     1  UNL1       -0.3308
      7 O          25.6781   77.5812   -1.3133 O.3     1  UNL1       -0.3794
      8 O          27.3549   78.3924   -3.3049 O.3     1  UNL1       -0.3779
      9 C          25.3823   77.1381   -2.6367 C.3     1  UNL1        0.1713
     10 C          26.6240   77.1992   -3.5015 C.3     1  UNL1        0.1895
     11 C          25.1077   75.6405   -2.5797 C.3     1  UNL1        0.1764
     12 C          27.3855   75.9656   -3.0471 C.3     1  UNL1        0.2383
     13 H          25.8567   78.5351   -1.3242 H       1  UNL1        0.2105
     14 H          26.8285   79.1481   -3.6092 H       1  UNL1        0.2106
     15 O          29.6413   74.3228   -2.6107 O.2     1  UNL1       -0.2464
     16 O          30.4212   73.8793   -7.1314 O.2     1  UNL1       -0.2670
     17 N          28.1963   75.4067   -4.0920 N.ar    1  UNL1       -0.2551
     18 N          30.0277   74.1031   -4.8620 N.ar    1  UNL1       -0.2743
     19 C          29.3080   74.5954   -3.7658 C.ar    1  UNL1        0.3323
     20 C          27.8859   75.6643   -5.4228 C.ar    1  UNL1        0.0869
     21 C          28.5831   75.1884   -6.4566 C.ar    1  UNL1        0.0795
     22 C          29.7597   74.3321   -6.2023 C.ar    1  UNL1        0.2626
     23 H          30.8067   73.5359   -4.6590 H       1  UNL1        0.1734
     24 O          22.7135   72.9398   -5.5501 O.3     1  UNL1       -0.2703
     25 P          21.3146   73.2678   -6.2906 P.3     1  UNL1        0.2208
     26 O          21.4984   72.5899   -7.7481 O.co2   1  UNL1       -0.4371
     27 O          20.9647   74.7274   -6.3263 O.2     1  UNL1       -0.5170
     28 O          20.2283   72.3377   -5.5424 O.3     1  UNL1       -0.2858
     29 O          19.6742   70.0426   -5.3374 O.3     1  UNL1       -0.3258
     30 O          15.9718   71.5217   -6.4122 O.3     1  UNL1       -0.3794
     31 O          16.4234   70.6563   -3.7113 O.3     1  UNL1       -0.3794
     32 O          18.3669   72.6040   -7.6255 O.3     1  UNL1       -0.3775
     33 C          17.2497   71.5492   -5.7706 C.3     1  UNL1        0.1715
     34 C          17.3172   70.3800   -4.7861 C.3     1  UNL1        0.1694
     35 C          18.3430   71.4237   -6.8300 C.3     1  UNL1        0.1967
     36 C          18.7442   70.1829   -4.2571 C.3     1  UNL1        0.1761
     37 C          19.7155   71.1815   -6.1994 C.3     1  UNL1        0.2704
     38 H          15.2732   71.6014   -5.7451 H       1  UNL1        0.2105
     39 H          15.5260   70.7791   -4.0589 H       1  UNL1        0.2105
     40 H          17.4925   72.7461   -8.0194 H       1  UNL1        0.2106
     41 O          19.3387   69.3040   -2.1163 O.3     1  UNL1       -0.3794
     42 C          18.8669   68.9271   -3.3968 C.3     1  UNL1        0.1693
     43 H          19.4214   68.5147   -1.5577 H       1  UNL1        0.2105
@<TRIPOS>UNITY_ATOM_ATTR
2 1
charge -1
26 1
charge -1
@<TRIPOS>BOND
     1    25    28    1
     2    25    24    1
     3    25    26    1
     4    25    27    2
     5     1     4    1
     6     1    24    1
     7     1     2    1
     8     1     3    2
     9     6    11    1
    10     6    12    1
    11    29    36    1
    12    29    37    1
    13     7     9    1
    14     7    13    1
    15     8    10    1
    16     8    14    1
    17    28    37    1
    18     4     5    1
    19    30    33    1
    20    30    38    1
    21    31    34    1
    22    31    39    1
    23    32    35    1
    24    32    40    1
    25    41    42    1
    26    41    43    1
    27    15    19    2
    28    16    22    2
    29    17    12    1
    30    17    19   ar
    31    17    20   ar
    32    18    19   ar
    33    18    22   ar
    34    18    23    1
    35     9    10    1
    36     9    11    1
    37    10    12    1
    38    11     5    1
    39    33    34    1
    40    33    35    1
    41    34    36    1
    42    35    37    1
    43    36    42    1
    44    20    21   ar
    45    21    22   ar
@<TRIPOS>MOLECULE
*****
 43 45 0 0 0
SMALL
GASTEIGER

@<TRIPOS>ATOM
      1 P          21.8060   74.5244   -5.6572 P.3     1  UNL1        0.2189
      2 O          20.9860   75.8928   -5.3882 O.co2   1  UNL1       -0.4371
      3 O          23.1955   74.7127   -6.1912 O.2     1  UNL1       -0.5170
      4 O          20.8093   73.6502   -6.5846 O.3     1  UNL1       -0.3112
      5 C          19.9144   74.3326   -7.4457 C.3     1  UNL1        0.1811
      6 O          19.6283   72.0393   -8.1032 O.3     1  UNL1       -0.3308
      7 O          17.9218   73.0874  -10.3348 O.3     1  UNL1       -0.3794
      8 O          16.0717   72.2315   -8.5234 O.3     1  UNL1       -0.3779
      9 C          18.0494   73.5642   -8.9963 C.3     1  UNL1        0.1713
     10 C          17.3354   72.6352   -8.0368 C.3     1  UNL1        0.1895
     11 C          19.5045   73.3985   -8.5759 C.3     1  UNL1        0.1764
     12 C          18.3162   71.4801   -7.9280 C.3     1  UNL1        0.2383
     13 H          17.0008   73.1833  -10.6256 H       1  UNL1        0.2105
     14 H          15.4838   73.0012   -8.5744 H       1  UNL1        0.2106
     15 O          16.0979   69.9990   -6.9987 O.2     1  UNL1       -0.2464
     16 O          18.1897   69.0209   -3.0101 O.2     1  UNL1       -0.2670
     17 N          18.2543   70.8274   -6.6507 N.ar    1  UNL1       -0.2551
     18 N          17.1413   69.5130   -5.0135 N.ar    1  UNL1       -0.2743
     19 C          17.0932   70.1098   -6.2798 C.ar    1  UNL1        0.3323
     20 C          19.3368   70.9022   -5.7810 C.ar    1  UNL1        0.0869
     21 C          19.3664   70.3285   -4.5763 C.ar    1  UNL1        0.0795
     22 C          18.1933   69.5600   -4.1125 C.ar    1  UNL1        0.2626
     23 H          16.3435   69.0082   -4.7336 H       1  UNL1        0.1734
     24 O          21.7304   73.7689   -4.2301 O.3     1  UNL1       -0.2703
     25 P          20.6843   73.9139   -3.0063 P.3     1  UNL1        0.2208
     26 O          19.2492   73.6787   -3.7152 O.co2   1  UNL1       -0.4371
     27 O          20.7972   75.2059   -2.2501 O.2     1  UNL1       -0.5170
     28 O          20.9180   72.5919   -2.1104 O.3     1  UNL1       -0.2858
     29 O          22.8074   73.1040   -0.7745 O.3     1  UNL1       -0.3258
     30 O          22.0027   69.3115    0.6469 O.3     1  UNL1       -0.3794
     31 O          21.4316   71.5939    2.2939 O.3     1  UNL1       -0.3794
     32 O          21.6884   69.8941   -2.1711 O.3     1  UNL1       -0.3775
     33 C          21.6790   70.6052    0.1301 C.3     1  UNL1        0.1715
     34 C          22.2125   71.6578    1.1038 C.3     1  UNL1        0.1694
     35 C          22.3236   70.7690   -1.2450 C.3     1  UNL1        0.1967
     36 C          22.1416   73.0639    0.4930 C.3     1  UNL1        0.1761
     37 C          22.2412   72.2144   -1.7389 C.3     1  UNL1        0.2704
     38 H          21.5959   69.2009    1.5198 H       1  UNL1        0.2105
     39 H          21.4845   70.7008    2.6693 H       1  UNL1        0.2105
     40 H          21.7477   68.9823   -1.8472 H       1  UNL1        0.2106
     41 O          21.8359   75.0523    1.7821 O.3     1  UNL1       -0.3794
     42 C          22.8124   74.1083    1.3825 C.3     1  UNL1        0.1693
     43 H          22.2485   75.7231    2.3491 H       1  UNL1        0.2105
@<TRIPOS>UNITY_ATOM_ATTR
2 1
charge -1
26 1
charge -1
@<TRIPOS>BOND
     1    25    28    1
     2    25    24    1
     3    25    26    1
     4    25    27    2
     5     1     4    1
     6     1    24    1
     7     1     2    1
     8     1     3    2
     9     6    11    1
    10     6    12    1
    11    29    36    1
    12    29    37    1
    13     7     9    1
    14     7    13    1
    15     8    10    1
    16     8    14    1
    17    28    37    1
    18     4     5    1
    19    30    33    1
    20    30    38    1
    21    31    34    1
    22    31    39    1
    23    32    35    1
    24    32    40    1
    25    41    42    1
    26    41    43    1
    27    15    19    2
    28    16    22    2
    29    17    12    1
    30    17    19   ar
    31    17    20   ar
    32    18    19   ar
    33    18    22   ar
    34    18    23    1
    35     9    10    1
    36     9    11    1
    37    10    12    1
    38    11     5    1
    39    33    34    1
    40    33    35    1
    41    34    36    1
    42    35    37    1
    43    36    42    1
    44    20    21   ar
    45    21    22   ar
@<TRIPOS>MOLECULE
*****
 43 45 0 0 0
SMALL
GASTEIGER

@<TRIPOS>ATOM
      1 P          22.0772   70.8809   -2.9813 P.3     1  UNL1        0.2189
      2 O          21.3066   69.4988   -2.6445 O.co2   1  UNL1       -0.4371
      3 O          23.5490   70.7399   -3.2368 O.2     1  UNL1       -0.5170
      4 O          21.6665   71.8617   -1.7618 O.3     1  UNL1       -0.3112
      5 C          22.6994   72.4785   -1.0130 C.3     1  UNL1        0.1811
      6 O          21.8907   74.4362    0.1215 O.3     1  UNL1       -0.3308
      7 O          23.6162   76.0099   -1.7591 O.3     1  UNL1       -0.3794
      8 O          25.1084   75.9685    0.5230 O.3     1  UNL1       -0.3779
      9 C          23.8601   74.7376   -1.1616 C.3     1  UNL1        0.1713
     10 C          24.2072   74.9025    0.3033 C.3     1  UNL1        0.1895
     11 C          22.5343   73.9900   -1.0921 C.3     1  UNL1        0.1764
     12 C          22.8433   75.1526    0.9241 C.3     1  UNL1        0.2383
     13 H          24.4486   76.5058   -1.8145 H       1  UNL1        0.2105
     14 H          25.9610   75.7618    0.1092 H       1  UNL1        0.2106
     15 O          23.0901   76.7975    3.2069 O.2     1  UNL1       -0.2464
     16 O          22.5175   73.2285    6.0661 O.2     1  UNL1       -0.2670
     17 N          22.7624   74.6796    2.2773 N.ar    1  UNL1       -0.2551
     18 N          22.8046   75.0191    4.6287 N.ar    1  UNL1       -0.2743
     19 C          22.9007   75.5882    3.3524 C.ar    1  UNL1        0.3323
     20 C          22.5478   73.3286    2.5275 C.ar    1  UNL1        0.0869
     21 C          22.4600   72.8017    3.7505 C.ar    1  UNL1        0.0795
     22 C          22.5934   73.6827    4.9287 C.ar    1  UNL1        0.2626
     23 H          22.8982   75.6329    5.3931 H       1  UNL1        0.1734
     24 O          21.2323   71.4743   -4.2251 O.3     1  UNL1       -0.2703
     25 P          21.3838   72.8575   -5.0478 P.3     1  UNL1        0.2208
     26 O          22.8759   72.7601   -5.6656 O.co2   1  UNL1       -0.4371
     27 O          21.1316   74.0908   -4.2298 O.2     1  UNL1       -0.5170
     28 O          20.4043   72.6861   -6.3190 O.3     1  UNL1       -0.2858
     29 O          19.1561   70.6718   -6.3547 O.3     1  UNL1       -0.3258
     30 O          18.5711   71.8798  -10.2598 O.3     1  UNL1       -0.3794
     31 O          16.4045   72.0523   -8.3825 O.3     1  UNL1       -0.3794
     32 O          21.1443   72.2784   -8.9951 O.3     1  UNL1       -0.3775
     33 C          18.7497   72.0617   -8.8525 C.3     1  UNL1        0.1715
     34 C          17.6120   71.3401   -8.1275 C.3     1  UNL1        0.1694
     35 C          20.1020   71.4820   -8.4419 C.3     1  UNL1        0.1967
     36 C          17.8780   71.2626   -6.6181 C.3     1  UNL1        0.1761
     37 C          20.2447   71.4040   -6.9208 C.3     1  UNL1        0.2704
     38 H          17.7145   72.2461  -10.5271 H       1  UNL1        0.2105
     39 H          16.2484   72.0944   -9.3391 H       1  UNL1        0.2105
     40 H          21.0429   72.3197   -9.9583 H       1  UNL1        0.2106
     41 O          16.2621   69.5155   -6.8311 O.3     1  UNL1       -0.3794
     42 C          16.8358   70.4110   -5.8966 C.3     1  UNL1        0.1693
     43 H          15.5970   68.9667   -6.3859 H       1  UNL1        0.2105
@<TRIPOS>UNITY_ATOM_ATTR
2 1
charge -1
26 1
charge -1
@<TRIPOS>BOND
     1    25    28    1
     2    25    24    1
     3    25    26    1
     4    25    27    2
     5     1     4    1
     6     1    24    1
     7     1     2    1
     8     1     3    2
     9     6    11    1
    10     6    12    1
    11    29    36    1
    12    29    37    1
    13     7     9    1
    14     7    13    1
    15     8    10    1
    16     8    14    1
    17    28    37    1
    18     4     5    1
    19    30    33    1
    20    30    38    1
    21    31    34    1
    22    31    39    1
    23    32    35    1
    24    32    40    1
    25    41    42    1
    26    41    43    1
    27    15    19    2
    28    16    22    2
    29    17    12    1
    30    17    19   ar
    31    17    20   ar
    32    18    19   ar
    33    18    22   ar
    34    18    23    1
    35     9    10    1
    36     9    11    1
    37    10    12    1
    38    11     5    1
    39    33    34    1
    40    33    35    1
    41    34    36    1
    42    35    37    1
    43    36    42    1
    44    20    21   ar
    45    21    22   ar
@<TRIPOS>MOLECULE
*****
 43 45 0 0 0
SMALL
GASTEIGER

@<TRIPOS>ATOM
      1 P          21.2010   73.7125   -5.1776 P.3     1  UNL1        0.2189
      2 O          20.7541   75.2469   -5.4291 O.co2   1  UNL1       -0.4371
      3 O          21.9758   73.0860   -6.2995 O.2     1  UNL1       -0.5170
      4 O          19.8225   72.9676   -4.7739 O.3     1  UNL1       -0.3112
      5 C          19.2767   73.2059   -3.4882 C.3     1  UNL1        0.1811
      6 O          17.3354   73.0073   -4.8903 O.3     1  UNL1       -0.3308
      7 O          16.0847   71.4929   -2.6246 O.3     1  UNL1       -0.3794
      8 O          16.8454   69.4999   -4.3234 O.3     1  UNL1       -0.3779
      9 C          17.4406   71.4954   -3.0684 C.3     1  UNL1        0.1713
     10 C          17.5736   70.7104   -4.3567 C.3     1  UNL1        0.1895
     11 C          17.7836   72.9094   -3.5206 C.3     1  UNL1        0.1764
     12 C          17.0299   71.6918   -5.3812 C.3     1  UNL1        0.2383
     13 H          15.8427   70.6003   -2.3304 H       1  UNL1        0.2105
     14 H          17.2297   68.9095   -3.6567 H       1  UNL1        0.2106
     15 O          15.9310   72.6682   -7.7931 O.2     1  UNL1       -0.2464
     16 O          19.4298   70.9902  -10.2799 O.2     1  UNL1       -0.2670
     17 N          17.6328   71.5246   -6.6735 N.ar    1  UNL1       -0.2551
     18 N          17.6741   71.8320   -9.0293 N.ar    1  UNL1       -0.2743
     19 C          16.9987   72.0526   -7.8222 C.ar    1  UNL1        0.3323
     20 C          18.8396   70.8439   -6.7923 C.ar    1  UNL1        0.0869
     21 C          19.4701   70.6409   -7.9510 C.ar    1  UNL1        0.0795
     22 C          18.8746   71.1605   -9.1989 C.ar    1  UNL1        0.2626
     23 H          17.2509   72.1906   -9.8431 H       1  UNL1        0.1734
     24 O          21.9963   73.7912   -3.7725 O.3     1  UNL1       -0.2703
     25 P          23.2710   72.9606   -3.2263 P.3     1  UNL1        0.2208
     26 O          24.5212   73.9247   -3.5797 O.co2   1  UNL1       -0.4371
     27 O          23.3841   71.5708   -3.7825 O.2     1  UNL1       -0.5170
     28 O          23.1449   73.0294   -1.6187 O.3     1  UNL1       -0.2858
     29 O          21.0381   71.9454   -1.5662 O.3     1  UNL1       -0.3258
     30 O          22.2242   71.2711    2.3311 O.3     1  UNL1       -0.3794
     31 O          22.2102   69.0953    0.4567 O.3     1  UNL1       -0.3794
     32 O          22.8169   73.8029    1.0589 O.3     1  UNL1       -0.3775
     33 C          22.4094   71.4329    0.9223 C.3     1  UNL1        0.1715
     34 C          21.5944   70.3553    0.2045 C.3     1  UNL1        0.1694
     35 C          21.9361   72.8265    0.5134 C.3     1  UNL1        0.1967
     36 C          21.5273   70.6248   -1.3048 C.3     1  UNL1        0.1761
     37 C          21.8586   72.9731   -1.0074 C.3     1  UNL1        0.2704
     38 H          22.5232   70.3884    2.5974 H       1  UNL1        0.2105
     39 H          22.2468   68.9376    1.4132 H       1  UNL1        0.2105
     40 H          22.8570   73.6998    2.0220 H       1  UNL1        0.2106
     41 O          21.1893   69.2671   -3.2416 O.3     1  UNL1       -0.3794
     42 C          20.5903   69.6526   -2.0182 C.3     1  UNL1        0.1693
     43 H          20.6042   68.6480   -3.7065 H       1  UNL1        0.2105
@<TRIPOS>UNITY_ATOM_ATTR
2 1
charge -1
26 1
charge -1
@<TRIPOS>BOND
     1    25    28    1
     2    25    24    1
     3    25    26    1
     4    25    27    2
     5     1     4    1
     6     1    24    1
     7     1     2    1
     8     1     3    2
     9     6    11    1
    10     6    12    1
    11    29    36    1
    12    29    37    1
    13     7     9    1
    14     7    13    1
    15     8    10    1
    16     8    14    1
    17    28    37    1
    18     4     5    1
    19    30    33    1
    20    30    38    1
    21    31    34    1
    22    31    39    1
    23    32    35    1
    24    32    40    1
    25    41    42    1
    26    41    43    1
    27    15    19    2
    28    16    22    2
    29    17    12    1
    30    17    19   ar
    31    17    20   ar
    32    18    19   ar
    33    18    22   ar
    34    18    23    1
    35     9    10    1
    36     9    11    1
    37    10    12    1
    38    11     5    1
    39    33    34    1
    40    33    35    1
    41    34    36    1
    42    35    37    1
    43    36    42    1
    44    20    21   ar
    45    21    22   ar
@<TRIPOS>MOLECULE
*****
 43 45 0 0 0
SMALL
GASTEIGER

@<TRIPOS>ATOM
      1 P          21.7057   71.1786   -3.1445 P.3     1  UNL1        0.2189
      2 O          21.1556   72.6825   -2.9136 O.co2   1  UNL1       -0.4371
      3 O          23.1631   71.0827   -3.4880 O.2     1  UNL1       -0.5170
      4 O          20.6845   70.5545   -4.2333 O.3     1  UNL1       -0.3112
      5 C          19.8241   71.4345   -4.9355 C.3     1  UNL1        0.1811
      6 O          17.5785   72.2868   -5.0036 O.3     1  UNL1       -0.3308
      7 O          16.7345   69.6249   -3.9114 O.3     1  UNL1       -0.3794
      8 O          16.1473   69.3921   -6.5643 O.3     1  UNL1       -0.3779
      9 C          17.7740   69.9308   -4.8395 C.3     1  UNL1        0.1713
     10 C          17.1866   70.2744   -6.1924 C.3     1  UNL1        0.1895
     11 C          18.4027   71.2539   -4.4204 C.3     1  UNL1        0.1764
     12 C          16.6963   71.6953   -5.9715 C.3     1  UNL1        0.2383
     13 H          16.3182   68.7837   -4.1583 H       1  UNL1        0.2105
     14 H          16.5094   68.5017   -6.6932 H       1  UNL1        0.2106
     15 O          18.6912   71.4830   -7.9598 O.2     1  UNL1       -0.2464
     16 O          16.7247   74.7556  -10.5413 O.2     1  UNL1       -0.2670
     17 N          16.7300   72.4794   -7.1737 N.ar    1  UNL1       -0.2551
     18 N          17.7103   73.1125   -9.2436 N.ar    1  UNL1       -0.2743
     19 C          17.7764   72.2960   -8.1075 C.ar    1  UNL1        0.3323
     20 C          15.7329   73.4176   -7.4173 C.ar    1  UNL1        0.0869
     21 C          15.6850   74.1894   -8.5051 C.ar    1  UNL1        0.0795
     22 C          16.7407   74.0603   -9.5302 C.ar    1  UNL1        0.2626
     23 H          18.4290   73.0025   -9.9079 H       1  UNL1        0.1734
     24 O          21.2855   70.4242   -1.7780 O.3     1  UNL1       -0.2703
     25 P          21.9367   70.4657   -0.2991 P.3     1  UNL1        0.2208
     26 O          23.5134   70.6768   -0.5937 O.co2   1  UNL1       -0.4371
     27 O          21.6198   69.2665    0.5467 O.2     1  UNL1       -0.5170
     28 O          21.4465   71.8718    0.3237 O.3     1  UNL1       -0.2858
     29 O          22.9328   73.7021    0.5637 O.3     1  UNL1       -0.3258
     30 O          20.1547   74.7262    3.4419 O.3     1  UNL1       -0.3794
     31 O          20.2645   76.2103    0.9856 O.3     1  UNL1       -0.3794
     32 O          20.8979   71.9527    3.0746 O.3     1  UNL1       -0.3775
     33 C          20.6014   74.1770    2.1993 C.3     1  UNL1        0.1715
     34 C          21.2739   75.2922    1.3962 C.3     1  UNL1        0.1694
     35 C          21.5890   73.0459    2.4798 C.3     1  UNL1        0.1967
     36 C          22.0117   74.7277    0.1747 C.3     1  UNL1        0.1761
     37 C          22.3039   72.5913    1.2060 C.3     1  UNL1        0.2704
     38 H          19.5269   75.4446    3.2709 H       1  UNL1        0.2105
     39 H          19.8060   76.5590    1.7662 H       1  UNL1        0.2105
     40 H          20.4499   72.2533    3.8800 H       1  UNL1        0.2106
     41 O          24.1110   75.2863   -0.8202 O.3     1  UNL1       -0.3794
     42 C          22.8196   75.8008   -0.5518 C.3     1  UNL1        0.1693
     43 H          24.6364   75.9584   -1.2827 H       1  UNL1        0.2105
@<TRIPOS>UNITY_ATOM_ATTR
2 1
charge -1
26 1
charge -1
@<TRIPOS>BOND
     1    25    28    1
     2    25    24    1
     3    25    26    1
     4    25    27    2
     5     1     4    1
     6     1    24    1
     7     1     2    1
     8     1     3    2
     9     6    11    1
    10     6    12    1
    11    29    36    1
    12    29    37    1
    13     7     9    1
    14     7    13    1
    15     8    10    1
    16     8    14    1
    17    28    37    1
    18     4     5    1
    19    30    33    1
    20    30    38    1
    21    31    34    1
    22    31    39    1
    23    32    35    1
    24    32    40    1
    25    41    42    1
    26    41    43    1
    27    15    19    2
    28    16    22    2
    29    17    12    1
    30    17    19   ar
    31    17    20   ar
    32    18    19   ar
    33    18    22   ar
    34    18    23    1
    35     9    10    1
    36     9    11    1
    37    10    12    1
    38    11     5    1
    39    33    34    1
    40    33    35    1
    41    34    36    1
    42    35    37    1
    43    36    42    1
    44    20    21   ar
    45    21    22   ar
@<TRIPOS>MOLECULE
*****
 43 45 0 0 0
SMALL
GASTEIGER

@<TRIPOS>ATOM
      1 P          19.9168   72.5767   -3.8846 P.3     1  UNL1        0.2189
      2 O          18.4550   72.5010   -3.1954 O.co2   1  UNL1       -0.4371
      3 O          20.8033   73.6733   -3.3716 O.2     1  UNL1       -0.5170
      4 O          19.5971   72.6156   -5.4702 O.3     1  UNL1       -0.3112
      5 C          18.4112   71.9955   -5.9362 C.3     1  UNL1        0.1811
      6 O          18.5402   74.0813   -7.1221 O.3     1  UNL1       -0.3308
      7 O          16.1862   73.1116   -8.7061 O.3     1  UNL1       -0.3794
      8 O          18.2738   72.6448  -10.3974 O.3     1  UNL1       -0.3779
      9 C          17.2922   72.3730   -8.1897 C.3     1  UNL1        0.1713
     10 C          18.5361   72.6473   -9.0089 C.3     1  UNL1        0.1895
     11 C          17.6641   72.9688   -6.8376 C.3     1  UNL1        0.1764
     12 C          18.9562   74.0142   -8.4959 C.3     1  UNL1        0.2383
     13 H          15.9304   72.7492   -9.5693 H       1  UNL1        0.2105
     14 H          18.0105   71.7535  -10.6753 H       1  UNL1        0.2106
     15 O          20.8484   71.9288   -8.7154 O.2     1  UNL1       -0.2464
     16 O          24.3803   74.8895   -8.7444 O.2     1  UNL1       -0.2670
     17 N          20.3767   74.2116   -8.5631 N.ar    1  UNL1       -0.2551
     18 N          22.6055   73.4047   -8.7298 N.ar    1  UNL1       -0.2743
     19 C          21.2403   73.0967   -8.6713 C.ar    1  UNL1        0.3323
     20 C          20.9001   75.4994   -8.5220 C.ar    1  UNL1        0.0869
     21 C          22.2046   75.7760   -8.5776 C.ar    1  UNL1        0.0795
     22 C          23.1746   74.6678   -8.6913 C.ar    1  UNL1        0.2626
     23 H          23.2261   72.6438   -8.8050 H       1  UNL1        0.1734
     24 O          20.4987   71.0843   -3.6677 O.3     1  UNL1       -0.2703
     25 P          21.5027   70.4884   -2.5498 P.3     1  UNL1        0.2208
     26 O          22.9514   70.5835   -3.2636 O.co2   1  UNL1       -0.4371
     27 O          21.1395   69.1143   -2.0663 O.2     1  UNL1       -0.5170
     28 O          21.5427   71.6150   -1.3946 O.3     1  UNL1       -0.2858
     29 O          23.2201   72.9585   -0.3957 O.3     1  UNL1       -0.3258
     30 O          21.2526   71.7151    3.0151 O.3     1  UNL1       -0.3794
     31 O          20.9712   74.4316    2.1265 O.3     1  UNL1       -0.3794
     32 O          21.6180   69.8779    0.8081 O.3     1  UNL1       -0.3775
     33 C          21.3607   72.1207    1.6479 C.3     1  UNL1        0.1715
     34 C          21.9494   73.5324    1.6116 C.3     1  UNL1        0.1694
     35 C          22.2681   71.1405    0.9067 C.3     1  UNL1        0.1967
     36 C          22.3431   73.9318    0.1831 C.3     1  UNL1        0.1761
     37 C          22.6390   71.6561   -0.4849 C.3     1  UNL1        0.2704
     38 H          20.6773   72.3330    3.4912 H       1  UNL1        0.2105
     39 H          20.7310   74.1679    3.0287 H       1  UNL1        0.2105
     40 H          21.3886   69.5623    1.6956 H       1  UNL1        0.2106
     41 O          24.4691   75.0222    0.1789 O.3     1  UNL1       -0.3794
     42 C          23.0758   75.2711    0.1452 C.3     1  UNL1        0.1693
     43 H          24.9483   75.8657    0.1550 H       1  UNL1        0.2105
@<TRIPOS>UNITY_ATOM_ATTR
2 1
charge -1
26 1
charge -1
@<TRIPOS>BOND
     1    25    28    1
     2    25    24    1
     3    25    26    1
     4    25    27    2
     5     1     4    1
     6     1    24    1
     7     1     2    1
     8     1     3    2
     9     6    11    1
    10     6    12    1
    11    29    36    1
    12    29    37    1
    13     7     9    1
    14     7    13    1
    15     8    10    1
    16     8    14    1
    17    28    37    1
    18     4     5    1
    19    30    33    1
    20    30    38    1
    21    31    34    1
    22    31    39    1
    23    32    35    1
    24    32    40    1
    25    41    42    1
    26    41    43    1
    27    15    19    2
    28    16    22    2
    29    17    12    1
    30    17    19   ar
    31    17    20   ar
    32    18    19   ar
    33    18    22   ar
    34    18    23    1
    35     9    10    1
    36     9    11    1
    37    10    12    1
    38    11     5    1
    39    33    34    1
    40    33    35    1
    41    34    36    1
    42    35    37    1
    43    36    42    1
    44    20    21   ar
    45    21    22   ar
@<TRIPOS>MOLECULE
*****
 43 45 0 0 0
SMALL
GASTEIGER

@<TRIPOS>ATOM
      1 P          22.4971   73.0118   -4.6978 P.3     1  UNL1        0.2189
      2 O          21.5885   74.3260   -4.4431 O.co2   1  UNL1       -0.4371
      3 O          23.8879   73.0849   -4.1394 O.2     1  UNL1       -0.5170
      4 O          22.3927   72.7709   -6.2943 O.3     1  UNL1       -0.3112
      5 C          21.1493   73.0022   -6.9331 C.3     1  UNL1        0.1811
      6 O          19.0855   71.7743   -6.8499 O.3     1  UNL1       -0.3308
      7 O          20.3642   69.8597   -8.7709 O.3     1  UNL1       -0.3794
      8 O          18.7741   71.3622  -10.3990 O.3     1  UNL1       -0.3779
      9 C          20.4980   71.2776   -8.6867 C.3     1  UNL1        0.1713
     10 C          19.2479   71.9556   -9.2073 C.3     1  UNL1        0.1895
     11 C          20.4792   71.6640   -7.2130 C.3     1  UNL1        0.1764
     12 C          18.2865   71.7799   -8.0442 C.3     1  UNL1        0.2383
     13 H          20.3739   69.5890   -9.7029 H       1  UNL1        0.2105
     14 H          19.4204   71.5011  -11.1087 H       1  UNL1        0.2106
     15 O          15.8940   71.6604   -6.5477 O.2     1  UNL1       -0.2464
     16 O          14.6862   75.9301   -7.7936 O.2     1  UNL1       -0.2670
     17 N          17.3286   72.8460   -7.9595 N.ar    1  UNL1       -0.2551
     18 N          15.2946   73.7866   -7.1691 N.ar    1  UNL1       -0.2743
     19 C          16.1588   72.6842   -7.1812 C.ar    1  UNL1        0.3323
     20 C          17.5539   74.0359   -8.6430 C.ar    1  UNL1        0.0869
     21 C          16.7193   75.0772   -8.6222 C.ar    1  UNL1        0.0795
     22 C          15.4739   74.9899   -7.8328 C.ar    1  UNL1        0.2626
     23 H          14.4729   73.6966   -6.6338 H       1  UNL1        0.1734
     24 O          21.5901   71.8196   -4.0904 O.3     1  UNL1       -0.2703
     25 P          21.9108   70.7148   -2.9548 P.3     1  UNL1        0.2208
     26 O          23.5158   70.5367   -3.0533 O.co2   1  UNL1       -0.4371
     27 O          21.1358   69.4376   -3.1026 O.2     1  UNL1       -0.5170
     28 O          21.6711   71.4847   -1.5567 O.3     1  UNL1       -0.2858
     29 O          23.3048   72.8381   -0.5003 O.3     1  UNL1       -0.3258
     30 O          21.1474   71.6891    2.8279 O.3     1  UNL1       -0.3794
     31 O          20.9379   74.3864    1.8639 O.3     1  UNL1       -0.3794
     32 O          21.6136   69.7986    0.6859 O.3     1  UNL1       -0.3775
     33 C          21.3318   72.0621    1.4595 C.3     1  UNL1        0.1715
     34 C          21.9340   73.4681    1.4227 C.3     1  UNL1        0.1694
     35 C          22.2687   71.0582    0.7904 C.3     1  UNL1        0.1967
     36 C          22.4068   73.8313    0.0086 C.3     1  UNL1        0.1761
     37 C          22.7178   71.5385   -0.5908 C.3     1  UNL1        0.2704
     38 H          20.5531   72.3223    3.2584 H       1  UNL1        0.2105
     39 H          20.6476   74.1455    2.7578 H       1  UNL1        0.2105
     40 H          21.3345   69.5054    1.5668 H       1  UNL1        0.2106
     41 O          24.3961   74.9686   -0.6682 O.3     1  UNL1       -0.3794
     42 C          23.1524   75.1637   -0.0206 C.3     1  UNL1        0.1693
     43 H          24.8815   75.8085   -0.6944 H       1  UNL1        0.2105
@<TRIPOS>UNITY_ATOM_ATTR
2 1
charge -1
26 1
charge -1
@<TRIPOS>BOND
     1    25    28    1
     2    25    24    1
     3    25    26    1
     4    25    27    2
     5     1     4    1
     6     1    24    1
     7     1     2    1
     8     1     3    2
     9     6    11    1
    10     6    12    1
    11    29    36    1
    12    29    37    1
    13     7     9    1
    14     7    13    1
    15     8    10    1
    16     8    14    1
    17    28    37    1
    18     4     5    1
    19    30    33    1
    20    30    38    1
    21    31    34    1
    22    31    39    1
    23    32    35    1
    24    32    40    1
    25    41    42    1
    26    41    43    1
    27    15    19    2
    28    16    22    2
    29    17    12    1
    30    17    19   ar
    31    17    20   ar
    32    18    19   ar
    33    18    22   ar
    34    18    23    1
    35     9    10    1
    36     9    11    1
    37    10    12    1
    38    11     5    1
    39    33    34    1
    40    33    35    1
    41    34    36    1
    42    35    37    1
    43    36    42    1
    44    20    21   ar
    45    21    22   ar
