@<TRIPOS>MOLECULE
UD1
 46 48 0 0 0
SMALL
GASTEIGER

@<TRIPOS>ATOM
      1 P          21.6616   70.8397   -2.5229 P.3     1  UNL1        0.2189
      2 O          23.1284   70.9832   -2.6525 O.2     1  UNL1       -0.5170
      3 O          21.2526   69.2966   -2.7335 O.3     1  UNL1       -0.4371
      4 O          20.9338   71.7438   -3.6390 O.3     1  UNL1       -0.3112
      5 C          19.8772   72.4437   -2.9801 C.3     1  UNL1        0.1811
      6 C          17.8829   71.3347   -5.7586 C.3     1  UNL1        0.2383
      7 C          17.9603   70.1041   -4.8206 C.3     1  UNL1        0.1895
      8 O          16.7806   69.3062   -4.9259 O.3     1  UNL1       -0.3779
      9 C          18.0574   70.7665   -3.4217 C.3     1  UNL1        0.1713
     10 C          18.5607   72.1927   -3.7169 C.3     1  UNL1        0.1764
     11 O          18.7685   72.2897   -5.1363 O.3     1  UNL1       -0.3308
     12 O          16.7735   70.8018   -2.7946 O.3     1  UNL1       -0.3794
     13 H          16.8921   68.5602   -4.3205 H       1  UNL1        0.2106
     14 H          16.4877   69.8843   -2.6917 H       1  UNL1        0.2105
     15 N          18.3527   70.9942   -7.1020 N.ar    1  UNL1       -0.2551
     16 C          17.4662   70.6359   -8.0470 C.ar    1  UNL1        0.3323
     17 N          17.8696   70.3214   -9.2922 N.ar    1  UNL1       -0.2743
     18 C          19.1795   70.3522   -9.6103 C.ar    1  UNL1        0.2626
     19 C          20.1241   70.7219   -8.6234 C.ar    1  UNL1        0.0795
     20 C          19.6916   71.0377   -7.3838 C.ar    1  UNL1        0.0869
     21 O          16.2813   70.6035   -7.7755 O.2     1  UNL1       -0.2464
     22 O          19.5457   70.0634  -10.7345 O.2     1  UNL1       -0.2670
     23 H          17.2159   70.0698   -9.9627 H       1  UNL1        0.1734
     24 O          21.2024   71.3225   -1.0584 O.3     1  UNL1       -0.2703
     25 P          22.2929   70.7565   -0.0192 P.3     1  UNL1        0.2208
     26 O          23.4918   70.3054   -0.7593 O.2     1  UNL1       -0.5170
     27 O          21.6669   69.5160    0.7942 O.3     1  UNL1       -0.4371
     28 O          22.7061   71.9197    1.0136 O.3     1  UNL1       -0.2865
     29 C          21.5050   72.6104    1.3623 C.3     1  UNL1        0.2611
     30 C          21.6431   74.0861    0.9840 C.3     1  UNL1        0.1582
     31 C          22.8450   74.6831    1.7247 C.3     1  UNL1        0.1625
     32 C          22.6840   74.4064    3.2232 C.3     1  UNL1        0.1686
     33 C          22.4705   72.9058    3.4328 C.3     1  UNL1        0.1760
     34 O          22.8956   76.0928    1.4974 O.3     1  UNL1       -0.3801
     35 O          23.8620   74.8242    3.9156 O.3     1  UNL1       -0.3794
     36 O          21.2796   72.4904    2.7652 O.3     1  UNL1       -0.3263
     37 H          23.6645   76.4262    1.9799 H       1  UNL1        0.2105
     38 H          23.7186   74.6316    4.8531 H       1  UNL1        0.2105
     39 C          23.0962   74.3167   -0.9575 C.2     1  UNL1        0.2231
     40 C          23.3078   74.4388   -2.4450 C.3     1  UNL1        0.0946
     41 N          21.8492   74.2043   -0.4609 N.am    1  UNL1       -0.2994
     42 O          24.0487   74.3202   -0.2073 O.2     1  UNL1       -0.2751
     43 H          21.0867   74.2017   -1.0611 H       1  UNL1        0.1496
     44 C          22.3410   72.6145    4.9293 C.3     1  UNL1        0.1693
     45 O          21.0383   72.9937    5.3779 O.3     1  UNL1       -0.3794
     46 H          20.9988   72.7944    6.3231 H       1  UNL1        0.2105
@<TRIPOS>BOND
     1    29    30    1
     2    29    28    1
     3    29    36    1
     4    30    31    1
     5    30    41    1
     6    31    32    1
     7    31    34    1
     8    32    33    1
     9    32    35    1
    10    33    44    1
    11    33    36    1
    12    44    45    1
    13    39    40    1
    14    39    41   am
    15    39    42    2
    16    41    43    1
    17    28    25    1
    18    34    37    1
    19    35    38    1
    20    45    46    1
    21    15    16   ar
    22    15    20   ar
    23    15     6    1
    24    16    17   ar
    25    16    21    2
    26    17    18   ar
    27    17    23    1
    28    18    19   ar
    29    18    22    2
    30    19    20   ar
    31     6     7    1
    32     6    11    1
    33     7     8    1
    34     7     9    1
    35     8    13    1
    36     9    10    1
    37     9    12    1
    38    10    11    1
    39    10     5    1
    40    12    14    1
    41     5     4    1
    42     4     1    1
    43     1     2    2
    44     1     3    1
    45     1    24    1
    46    24    25    1
    47    25    26    2
    48    25    27    1
@<TRIPOS>MOLECULE
UD1
 46 48 0 0 0
SMALL
GASTEIGER

@<TRIPOS>ATOM
      1 P          21.8643   70.8268   -0.7118 P.3     1  UNL1        0.2189
      2 O          22.5763   70.2443   -1.8705 O.2     1  UNL1       -0.5170
      3 O          21.5619   69.6718    0.3684 O.3     1  UNL1       -0.4371
      4 O          20.4756   71.4746   -1.2064 O.3     1  UNL1       -0.3112
      5 C          20.5718   71.6282   -2.6232 C.3     1  UNL1        0.1811
      6 C          18.1422   71.2343   -5.2441 C.3     1  UNL1        0.2383
      7 C          18.0589   69.9151   -4.4361 C.3     1  UNL1        0.1895
      8 O          16.7385   69.3729   -4.4773 O.3     1  UNL1       -0.3779
      9 C          18.4188   70.3874   -3.0034 C.3     1  UNL1        0.1713
     10 C          19.1681   71.7156   -3.2242 C.3     1  UNL1        0.1764
     11 O          19.2563   71.9283   -4.6435 O.3     1  UNL1       -0.3308
     12 O          17.2332   70.5965   -2.2330 O.3     1  UNL1       -0.3794
     13 H          16.7544   68.5568   -3.9585 H       1  UNL1        0.2106
     14 H          16.7799   69.7445   -2.1813 H       1  UNL1        0.2105
     15 N          18.4051   70.9620   -6.6576 N.ar    1  UNL1       -0.2551
     16 C          17.3762   70.7830   -7.5042 C.ar    1  UNL1        0.3323
     17 N          17.5883   70.5350   -8.8103 N.ar    1  UNL1       -0.2743
     18 C          18.8454   70.4527   -9.2908 C.ar    1  UNL1        0.2626
     19 C          19.9378   70.6331   -8.4094 C.ar    1  UNL1        0.0795
     20 C          19.6965   70.8860   -7.1052 C.ar    1  UNL1        0.0869
     21 O          16.2367   70.8544   -7.0859 O.2     1  UNL1       -0.2464
     22 O          19.0384   70.2238  -10.4706 O.2     1  UNL1       -0.2670
     23 H          16.8343   70.4133   -9.4076 H       1  UNL1        0.1734
     24 O          22.7783   71.9670   -0.0383 O.3     1  UNL1       -0.2703
     25 P          21.8806   72.6728    1.0955 P.3     1  UNL1        0.2208
     26 O          21.2401   71.6357    1.9339 O.2     1  UNL1       -0.5170
     27 O          20.7442   73.5745    0.3970 O.3     1  UNL1       -0.4371
     28 O          22.8136   73.6065    2.0164 O.3     1  UNL1       -0.2865
     29 C          22.0316   74.7464    2.3774 C.3     1  UNL1        0.2611
     30 C          22.8979   76.0036    2.2828 C.3     1  UNL1        0.1582
     31 C          24.1017   75.8545    3.2199 C.3     1  UNL1        0.1625
     32 C          23.5904   75.5191    4.6250 C.3     1  UNL1        0.1686
     33 C          22.6742   74.2963    4.5433 C.3     1  UNL1        0.1760
     34 O          24.8367   77.0792    3.2539 O.3     1  UNL1       -0.3801
     35 O          24.6981   75.2317    5.4807 O.3     1  UNL1       -0.3794
     36 O          21.5524   74.5892    3.7112 O.3     1  UNL1       -0.3263
     37 H          25.5829   76.9407    3.8532 H       1  UNL1        0.2105
     38 H          24.3320   75.0257    6.3525 H       1  UNL1        0.2105
     39 C          24.5872   75.7305    0.5491 C.2     1  UNL1        0.2231
     40 C          25.0691   75.9059   -0.8684 C.3     1  UNL1        0.0946
     41 N          23.3662   76.1734    0.9058 N.am    1  UNL1       -0.2994
     42 O          25.2991   75.1910    1.3690 O.2     1  UNL1       -0.2751
     43 H          22.7964   76.6054    0.2499 H       1  UNL1        0.1496
     44 C          22.1839   73.9333    5.9465 C.3     1  UNL1        0.1693
     45 O          20.9830   73.1650    5.8479 O.3     1  UNL1       -0.3794
     46 H          20.7083   72.9580    6.7514 H       1  UNL1        0.2105
@<TRIPOS>BOND
     1    29    30    1
     2    29    28    1
     3    29    36    1
     4    30    31    1
     5    30    41    1
     6    31    32    1
     7    31    34    1
     8    32    33    1
     9    32    35    1
    10    33    44    1
    11    33    36    1
    12    44    45    1
    13    39    40    1
    14    39    41   am
    15    39    42    2
    16    41    43    1
    17    28    25    1
    18    34    37    1
    19    35    38    1
    20    45    46    1
    21    15    16   ar
    22    15    20   ar
    23    15     6    1
    24    16    17   ar
    25    16    21    2
    26    17    18   ar
    27    17    23    1
    28    18    19   ar
    29    18    22    2
    30    19    20   ar
    31     6     7    1
    32     6    11    1
    33     7     8    1
    34     7     9    1
    35     8    13    1
    36     9    10    1
    37     9    12    1
    38    10    11    1
    39    10     5    1
    40    12    14    1
    41     5     4    1
    42     4     1    1
    43     1     2    2
    44     1     3    1
    45     1    24    1
    46    24    25    1
    47    25    26    2
    48    25    27    1
@<TRIPOS>MOLECULE
UD1
 46 48 0 0 0
SMALL
GASTEIGER

@<TRIPOS>ATOM
      1 P          21.8894   70.5024   -0.3076 P.3     1  UNL1        0.2189
      2 O          22.7156   71.4729   -1.0588 O.2     1  UNL1       -0.5170
      3 O          22.8070   69.2644    0.1592 O.3     1  UNL1       -0.4371
      4 O          20.7029   69.9632   -1.2533 O.3     1  UNL1       -0.3112
      5 C          20.8845   70.5717   -2.5328 C.3     1  UNL1        0.1811
      6 C          18.4003   71.0170   -5.0936 C.3     1  UNL1        0.2383
      7 C          18.0248   69.6745   -4.4178 C.3     1  UNL1        0.1895
      8 O          16.6146   69.4546   -4.4665 O.3     1  UNL1       -0.3779
      9 C          18.4996   69.9004   -2.9588 C.3     1  UNL1        0.1713
     10 C          19.5319   71.0386   -3.0730 C.3     1  UNL1        0.1764
     11 O          19.6509   71.3725   -4.4664 O.3     1  UNL1       -0.3308
     12 O          17.4026   70.2924   -2.1307 O.3     1  UNL1       -0.3794
     13 H          16.4481   68.6068   -4.0319 H       1  UNL1        0.2106
     14 H          16.7660   69.5654   -2.1478 H       1  UNL1        0.2105
     15 N          18.5778   70.8409   -6.5355 N.ar    1  UNL1       -0.2551
     16 C          17.5003   70.7860   -7.3376 C.ar    1  UNL1        0.3323
     17 N          17.6338   70.6286   -8.6679 N.ar    1  UNL1       -0.2743
     18 C          18.8589   70.5136   -9.2190 C.ar    1  UNL1        0.2626
     19 C          20.0016   70.5638   -8.3855 C.ar    1  UNL1        0.0795
     20 C          19.8391   70.7278   -7.0550 C.ar    1  UNL1        0.0869
     21 O          16.3886   70.8883   -6.8555 O.2     1  UNL1       -0.2464
     22 O          18.9806   70.3665  -10.4210 O.2     1  UNL1       -0.2670
     23 H          16.8458   70.5959   -9.2320 H       1  UNL1        0.1734
     24 O          21.2591   71.2222    0.9860 O.3     1  UNL1       -0.2703
     25 P          21.3487   72.8076    0.7258 P.3     1  UNL1        0.2208
     26 O          20.6148   73.1462   -0.5135 O.2     1  UNL1       -0.5170
     27 O          22.8917   73.2403    0.5700 O.3     1  UNL1       -0.4371
     28 O          20.6950   73.5945    1.9683 O.3     1  UNL1       -0.2865
     29 C          20.6822   74.9803    1.6209 C.3     1  UNL1        0.2611
     30 C          21.3121   75.7911    2.7548 C.3     1  UNL1        0.1582
     31 C          20.5195   75.5492    4.0443 C.3     1  UNL1        0.1625
     32 C          19.0408   75.8463    3.7737 C.3     1  UNL1        0.1686
     33 C          18.5814   75.0288    2.5646 C.3     1  UNL1        0.1760
     34 O          21.0044   76.4133    5.0737 O.3     1  UNL1       -0.3801
     35 O          18.2640   75.4874    4.9181 O.3     1  UNL1       -0.3794
     36 O          19.3367   75.4044    1.4136 O.3     1  UNL1       -0.3263
     37 H          20.4795   76.2278    5.8645 H       1  UNL1        0.2105
     38 H          17.3420   75.6896    4.7049 H       1  UNL1        0.2105
     39 C          23.0039   74.4511    3.8847 C.2     1  UNL1        0.2231
     40 C          24.4340   74.0169    4.0816 C.3     1  UNL1        0.0946
     41 N          22.7011   75.3686    2.9462 N.am    1  UNL1       -0.2994
     42 O          22.1257   73.9749    4.5717 O.2     1  UNL1       -0.2751
     43 H          23.4038   75.7501    2.3965 H       1  UNL1        0.1496
     44 C          17.0968   75.2937    2.3058 C.3     1  UNL1        0.1693
     45 O          16.9597   76.2508    1.2535 O.3     1  UNL1       -0.3794
     46 H          16.0118   76.3890    1.1227 H       1  UNL1        0.2105
@<TRIPOS>BOND
     1    29    30    1
     2    29    28    1
     3    29    36    1
     4    30    31    1
     5    30    41    1
     6    31    32    1
     7    31    34    1
     8    32    33    1
     9    32    35    1
    10    33    44    1
    11    33    36    1
    12    44    45    1
    13    39    40    1
    14    39    41   am
    15    39    42    2
    16    41    43    1
    17    28    25    1
    18    34    37    1
    19    35    38    1
    20    45    46    1
    21    15    16   ar
    22    15    20   ar
    23    15     6    1
    24    16    17   ar
    25    16    21    2
    26    17    18   ar
    27    17    23    1
    28    18    19   ar
    29    18    22    2
    30    19    20   ar
    31     6     7    1
    32     6    11    1
    33     7     8    1
    34     7     9    1
    35     8    13    1
    36     9    10    1
    37     9    12    1
    38    10    11    1
    39    10     5    1
    40    12    14    1
    41     5     4    1
    42     4     1    1
    43     1     2    2
    44     1     3    1
    45     1    24    1
    46    24    25    1
    47    25    26    2
    48    25    27    1
@<TRIPOS>MOLECULE
UD1
 46 48 0 0 0
SMALL
GASTEIGER

@<TRIPOS>ATOM
      1 P          21.9588   70.4729   -0.3492 P.3     1  UNL1        0.2189
      2 O          22.8989   71.2172   -1.2157 O.2     1  UNL1       -0.5170
      3 O          22.7071   69.1938    0.2804 O.3     1  UNL1       -0.4371
      4 O          20.6995   69.9802   -1.2234 O.3     1  UNL1       -0.3112
      5 C          20.8751   70.5109   -2.5378 C.3     1  UNL1        0.1811
      6 C          18.3951   71.0023   -5.0943 C.3     1  UNL1        0.2383
      7 C          17.9993   69.6640   -4.4216 C.3     1  UNL1        0.1895
      8 O          16.5858   69.4666   -4.4691 O.3     1  UNL1       -0.3779
      9 C          18.4793   69.8785   -2.9626 C.3     1  UNL1        0.1713
     10 C          19.5294   71.0006   -3.0751 C.3     1  UNL1        0.1764
     11 O          19.6519   71.3363   -4.4678 O.3     1  UNL1       -0.3308
     12 O          17.3897   70.2856   -2.1321 O.3     1  UNL1       -0.3794
     13 H          16.4064   68.6203   -4.0366 H       1  UNL1        0.2106
     14 H          16.7417   69.5687   -2.1503 H       1  UNL1        0.2105
     15 N          18.5680   70.8273   -6.5369 N.ar    1  UNL1       -0.2551
     16 C          17.4890   70.7949   -7.3382 C.ar    1  UNL1        0.3323
     17 N          17.6183   70.6391   -8.6690 N.ar    1  UNL1       -0.2743
     18 C          18.8407   70.5030   -9.2216 C.ar    1  UNL1        0.2626
     19 C          19.9848   70.5293   -8.3890 C.ar    1  UNL1        0.0795
     20 C          19.8266   70.6922   -7.0579 C.ar    1  UNL1        0.0869
     21 O          16.3799   70.9164   -6.8547 O.2     1  UNL1       -0.2464
     22 O          18.9585   70.3573  -10.4242 O.2     1  UNL1       -0.2670
     23 H          16.8294   70.6228   -9.2325 H       1  UNL1        0.1734
     24 O          21.4463   71.4332    0.8358 O.3     1  UNL1       -0.2703
     25 P          21.6802   72.9466    0.3418 P.3     1  UNL1        0.2208
     26 O          20.6219   73.3197   -0.6223 O.2     1  UNL1       -0.5170
     27 O          23.1193   73.0630   -0.3706 O.3     1  UNL1       -0.4371
     28 O          21.6275   73.9398    1.6073 O.3     1  UNL1       -0.2865
     29 C          20.6207   73.4367    2.4873 C.3     1  UNL1        0.2611
     30 C          19.6324   74.5569    2.8168 C.3     1  UNL1        0.1582
     31 C          20.3905   75.7182    3.4695 C.3     1  UNL1        0.1625
     32 C          21.1837   75.1764    4.6634 C.3     1  UNL1        0.1686
     33 C          22.0574   74.0113    4.1938 C.3     1  UNL1        0.1760
     34 O          19.4602   76.7060    3.9170 O.3     1  UNL1       -0.3801
     35 O          22.0115   76.2117    5.1968 O.3     1  UNL1       -0.3794
     36 O          21.2320   72.9639    3.6857 O.3     1  UNL1       -0.3263
     37 H          19.9788   77.4162    4.3196 H       1  UNL1        0.2105
     38 H          22.4925   75.8283    5.9438 H       1  UNL1        0.2105
     39 C          19.4647   76.1059    0.9442 C.2     1  UNL1        0.2231
     40 C          18.8023   76.5835   -0.3229 C.3     1  UNL1        0.0946
     41 N          18.9896   75.0209    1.5856 N.am    1  UNL1       -0.2994
     42 O          20.4253   76.6988    1.3868 O.2     1  UNL1       -0.2751
     43 H          18.2208   74.5464    1.2318 H       1  UNL1        0.1496
     44 C          22.8783   73.4837    5.3724 C.3     1  UNL1        0.1693
     45 O          22.1502   73.6798    6.5863 O.3     1  UNL1       -0.3794
     46 H          22.7013   73.3351    7.3019 H       1  UNL1        0.2105
@<TRIPOS>BOND
     1    29    30    1
     2    29    28    1
     3    29    36    1
     4    30    31    1
     5    30    41    1
     6    31    32    1
     7    31    34    1
     8    32    33    1
     9    32    35    1
    10    33    44    1
    11    33    36    1
    12    44    45    1
    13    39    40    1
    14    39    41   am
    15    39    42    2
    16    41    43    1
    17    28    25    1
    18    34    37    1
    19    35    38    1
    20    45    46    1
    21    15    16   ar
    22    15    20   ar
    23    15     6    1
    24    16    17   ar
    25    16    21    2
    26    17    18   ar
    27    17    23    1
    28    18    19   ar
    29    18    22    2
    30    19    20   ar
    31     6     7    1
    32     6    11    1
    33     7     8    1
    34     7     9    1
    35     8    13    1
    36     9    10    1
    37     9    12    1
    38    10    11    1
    39    10     5    1
    40    12    14    1
    41     5     4    1
    42     4     1    1
    43     1     2    2
    44     1     3    1
    45     1    24    1
    46    24    25    1
    47    25    26    2
    48    25    27    1
@<TRIPOS>MOLECULE
UD1
 46 48 0 0 0
SMALL
GASTEIGER

@<TRIPOS>ATOM
      1 P          20.4635   70.3430   -2.3653 P.3     1  UNL1        0.2189
      2 O          21.7316   69.6417   -2.6632 O.2     1  UNL1       -0.5170
      3 O          19.2942   69.2612   -2.1305 O.3     1  UNL1       -0.4371
      4 O          20.0727   71.2937   -3.6048 O.3     1  UNL1       -0.3112
      5 C          20.1812   72.6411   -3.1432 C.3     1  UNL1        0.1811
      6 C          19.2145   73.4587   -6.5084 C.3     1  UNL1        0.2383
      7 C          17.8752   73.3273   -5.7408 C.3     1  UNL1        0.1895
      8 O          16.8819   74.1910   -6.2945 O.3     1  UNL1       -0.3779
      9 C          18.2720   73.7842   -4.3129 C.3     1  UNL1        0.1713
     10 C          19.8014   73.6002   -4.2724 C.3     1  UNL1        0.1764
     11 O          20.2013   73.0479   -5.5383 O.3     1  UNL1       -0.3308
     12 O          17.9210   75.1549   -4.1105 O.3     1  UNL1       -0.3794
     13 H          16.0766   74.0613   -5.7747 H       1  UNL1        0.2106
     14 H          16.9612   75.2145   -4.2071 H       1  UNL1        0.2105
     15 N          19.2351   72.5724   -7.6726 N.ar    1  UNL1       -0.2551
     16 C          18.8370   73.0360   -8.8701 C.ar    1  UNL1        0.3323
     17 N          18.8492   72.2443   -9.9588 N.ar    1  UNL1       -0.2743
     18 C          19.2550   70.9622   -9.8621 C.ar    1  UNL1        0.2626
     19 C          19.6711   70.4594   -8.6063 C.ar    1  UNL1        0.0795
     20 C          19.6539   71.2768   -7.5316 C.ar    1  UNL1        0.0869
     21 O          18.4683   74.1901   -8.9733 O.2     1  UNL1       -0.2464
     22 O          19.2619   70.2441  -10.8449 O.2     1  UNL1       -0.2670
     23 H          18.5631   72.5967  -10.8157 H       1  UNL1        0.1734
     24 O          20.6431   71.2368   -1.0395 O.3     1  UNL1       -0.2703
     25 P          21.9641   70.7011   -0.2931 P.3     1  UNL1        0.2208
     26 O          23.0671   70.5770   -1.2712 O.2     1  UNL1       -0.5170
     27 O          21.6644   69.2613    0.3622 O.3     1  UNL1       -0.4371
     28 O          22.3865   71.7379    0.8633 O.3     1  UNL1       -0.2865
     29 C          21.6526   72.9412    0.6293 C.3     1  UNL1        0.2611
     30 C          22.6296   74.0756    0.3154 C.3     1  UNL1        0.1582
     31 C          23.5918   74.2495    1.4958 C.3     1  UNL1        0.1625
     32 C          22.7693   74.4328    2.7757 C.3     1  UNL1        0.1686
     33 C          21.7838   73.2695    2.9056 C.3     1  UNL1        0.1760
     34 O          24.4111   75.4000    1.2803 O.3     1  UNL1       -0.3801
     35 O          23.6425   74.4498    3.9066 O.3     1  UNL1       -0.3794
     36 O          20.8924   73.2661    1.7912 O.3     1  UNL1       -0.3263
     37 H          24.9995   75.4711    2.0445 H       1  UNL1        0.2105
     38 H          23.0848   74.5659    4.6889 H       1  UNL1        0.2105
     39 C          23.1626   74.4222   -2.0362 C.2     1  UNL1        0.2231
     40 C          23.9447   74.0838   -3.2797 C.3     1  UNL1        0.0946
     41 N          23.3894   73.7476   -0.8927 N.am    1  UNL1       -0.2994
     42 O          22.3284   75.3016   -2.0653 O.2     1  UNL1       -0.2751
     43 H          24.0568   73.0436   -0.8692 H       1  UNL1        0.1496
     44 C          20.9796   73.4259    4.1979 C.3     1  UNL1        0.1693
     45 O          21.6484   72.7444    5.2610 O.3     1  UNL1       -0.3794
     46 H          21.1100   72.8672    6.0546 H       1  UNL1        0.2105
@<TRIPOS>BOND
     1    29    30    1
     2    29    28    1
     3    29    36    1
     4    30    31    1
     5    30    41    1
     6    31    32    1
     7    31    34    1
     8    32    33    1
     9    32    35    1
    10    33    44    1
    11    33    36    1
    12    44    45    1
    13    39    40    1
    14    39    41   am
    15    39    42    2
    16    41    43    1
    17    28    25    1
    18    34    37    1
    19    35    38    1
    20    45    46    1
    21    15    16   ar
    22    15    20   ar
    23    15     6    1
    24    16    17   ar
    25    16    21    2
    26    17    18   ar
    27    17    23    1
    28    18    19   ar
    29    18    22    2
    30    19    20   ar
    31     6     7    1
    32     6    11    1
    33     7     8    1
    34     7     9    1
    35     8    13    1
    36     9    10    1
    37     9    12    1
    38    10    11    1
    39    10     5    1
    40    12    14    1
    41     5     4    1
    42     4     1    1
    43     1     2    2
    44     1     3    1
    45     1    24    1
    46    24    25    1
    47    25    26    2
    48    25    27    1
@<TRIPOS>MOLECULE
UD1
 46 48 0 0 0
SMALL
GASTEIGER

@<TRIPOS>ATOM
      1 P          22.8568   71.9334   -3.0765 P.3     1  UNL1        0.2189
      2 O          23.5205   70.6535   -2.7446 O.2     1  UNL1       -0.5170
      3 O          22.6567   72.7984   -1.7333 O.3     1  UNL1       -0.4371
      4 O          21.4206   71.6360   -3.7410 O.3     1  UNL1       -0.3112
      5 C          20.4459   71.7971   -2.7094 C.3     1  UNL1        0.1811
      6 C          18.0641   71.2620   -5.3490 C.3     1  UNL1        0.2383
      7 C          18.0239   69.9545   -4.5190 C.3     1  UNL1        0.1895
      8 O          16.7265   69.3596   -4.5650 O.3     1  UNL1       -0.3779
      9 C          18.3482   70.4652   -3.0910 C.3     1  UNL1        0.1713
     10 C          19.0468   71.8182   -3.3270 C.3     1  UNL1        0.1764
     11 O          19.1429   72.0099   -4.7487 O.3     1  UNL1       -0.3308
     12 O          17.1465   70.6401   -2.3372 O.3     1  UNL1       -0.3794
     13 H          16.7688   68.5537   -4.0318 H       1  UNL1        0.2106
     14 H          16.7267   69.7717   -2.2755 H       1  UNL1        0.2105
     15 N          18.3538   70.9762   -6.7547 N.ar    1  UNL1       -0.2551
     16 C          17.3417   70.7644   -7.6138 C.ar    1  UNL1        0.3323
     17 N          17.5786   70.5033   -8.9131 N.ar    1  UNL1       -0.2743
     18 C          18.8442   70.4408   -9.3738 C.ar    1  UNL1        0.2626
     19 C          19.9193   70.6559   -8.4789 C.ar    1  UNL1        0.0795
     20 C          19.6531   70.9212   -7.1820 C.ar    1  UNL1        0.0869
     21 O          16.1948   70.8175   -7.2134 O.2     1  UNL1       -0.2464
     22 O          19.0597   70.2001  -10.5473 O.2     1  UNL1       -0.2670
     23 H          16.8364   70.3577   -9.5197 H       1  UNL1        0.1734
     24 O          23.7684   72.7570   -4.1155 O.3     1  UNL1       -0.2703
     25 P          22.9348   74.0710   -4.5252 P.3     1  UNL1        0.2208
     26 O          22.1103   74.5096   -3.3777 O.2     1  UNL1       -0.5170
     27 O          21.9775   73.7323   -5.7745 O.3     1  UNL1       -0.4371
     28 O          23.9532   75.2480   -4.9350 O.3     1  UNL1       -0.2865
     29 C          23.1839   76.2460   -5.6083 C.3     1  UNL1        0.2611
     30 C          23.8641   76.6004   -6.9318 C.3     1  UNL1        0.1582
     31 C          25.2810   77.1107   -6.6463 C.3     1  UNL1        0.1625
     32 C          25.1946   78.2549   -5.6308 C.3     1  UNL1        0.1686
     33 C          24.4165   77.7746   -4.4039 C.3     1  UNL1        0.1760
     34 O          25.8724   77.5847   -7.8576 O.3     1  UNL1       -0.3801
     35 O          26.5117   78.6474   -5.2397 O.3     1  UNL1       -0.3794
     36 O          23.0916   77.4077   -4.7865 O.3     1  UNL1       -0.3263
     37 H          26.7603   77.8950   -7.6322 H       1  UNL1        0.2105
     38 H          26.4109   79.3674   -4.6010 H       1  UNL1        0.2105
     39 C          23.2711   75.3780   -8.9538 C.2     1  UNL1        0.2231
     40 C          23.3423   74.1518   -9.8276 C.3     1  UNL1        0.0946
     41 N          23.9334   75.4097   -7.7813 N.am    1  UNL1       -0.2994
     42 O          22.6169   76.3362   -9.3059 O.2     1  UNL1       -0.2751
     43 H          24.4568   74.6429   -7.4992 H       1  UNL1        0.1496
     44 C          24.3525   78.9001   -3.3694 C.3     1  UNL1        0.1693
     45 O          23.5505   78.4847   -2.2620 O.3     1  UNL1       -0.3794
     46 H          23.5359   79.2208   -1.6354 H       1  UNL1        0.2105
@<TRIPOS>BOND
     1    29    30    1
     2    29    28    1
     3    29    36    1
     4    30    31    1
     5    30    41    1
     6    31    32    1
     7    31    34    1
     8    32    33    1
     9    32    35    1
    10    33    44    1
    11    33    36    1
    12    44    45    1
    13    39    40    1
    14    39    41   am
    15    39    42    2
    16    41    43    1
    17    28    25    1
    18    34    37    1
    19    35    38    1
    20    45    46    1
    21    15    16   ar
    22    15    20   ar
    23    15     6    1
    24    16    17   ar
    25    16    21    2
    26    17    18   ar
    27    17    23    1
    28    18    19   ar
    29    18    22    2
    30    19    20   ar
    31     6     7    1
    32     6    11    1
    33     7     8    1
    34     7     9    1
    35     8    13    1
    36     9    10    1
    37     9    12    1
    38    10    11    1
    39    10     5    1
    40    12    14    1
    41     5     4    1
    42     4     1    1
    43     1     2    2
    44     1     3    1
    45     1    24    1
    46    24    25    1
    47    25    26    2
    48    25    27    1
@<TRIPOS>MOLECULE
UD1
 46 48 0 0 0
SMALL
GASTEIGER

@<TRIPOS>ATOM
      1 P          22.4258   74.7874   -4.5482 P.3     1  UNL1        0.2189
      2 O          23.9023   74.7776   -4.6402 O.2     1  UNL1       -0.5170
      3 O          21.8707   73.2804   -4.6647 O.3     1  UNL1       -0.4371
      4 O          21.8199   75.6755   -5.7470 O.3     1  UNL1       -0.3112
      5 C          22.5639   75.3481   -6.9215 C.3     1  UNL1        0.1811
      6 C          19.6046   74.1599   -8.5822 C.3     1  UNL1        0.2383
      7 C          19.1967   75.5364   -7.9998 C.3     1  UNL1        0.1895
      8 O          18.2107   76.1660   -8.8186 O.3     1  UNL1       -0.3779
      9 C          20.5351   76.3186   -8.0449 C.3     1  UNL1        0.1713
     10 C          21.6105   75.2170   -8.1103 C.3     1  UNL1        0.1764
     11 O          20.9321   73.9505   -8.0555 O.3     1  UNL1       -0.3308
     12 O          20.5899   77.1498   -9.2063 O.3     1  UNL1       -0.3794
     13 H          18.0009   77.0136   -8.4028 H       1  UNL1        0.2106
     14 H          19.8583   77.7774   -9.1353 H       1  UNL1        0.2105
     15 N          18.6949   73.1106   -8.1210 N.ar    1  UNL1       -0.2551
     16 C          18.4234   72.0650   -8.9214 C.ar    1  UNL1        0.3323
     17 N          17.5934   71.0834   -8.5217 N.ar    1  UNL1       -0.2743
     18 C          17.0103   71.1389   -7.3073 C.ar    1  UNL1        0.2626
     19 C          17.2827   72.2370   -6.4570 C.ar    1  UNL1        0.0795
     20 C          18.1232   73.2051   -6.8809 C.ar    1  UNL1        0.0869
     21 O          18.9416   72.0007  -10.0195 O.2     1  UNL1       -0.2464
     22 O          16.2561   70.2543   -6.9468 O.2     1  UNL1       -0.2670
     23 H          17.4126   70.3342   -9.1101 H       1  UNL1        0.1734
     24 O          21.9802   75.4168   -3.1361 O.3     1  UNL1       -0.2703
     25 P          20.6500   74.6356   -2.6780 P.3     1  UNL1        0.2208
     26 O          19.6218   74.7504   -3.7355 O.2     1  UNL1       -0.5170
     27 O          20.0902   75.2820   -1.3138 O.3     1  UNL1       -0.4371
     28 O          20.9958   73.0831   -2.4321 O.3     1  UNL1       -0.2865
     29 C          20.0299   72.5852   -1.5046 C.3     1  UNL1        0.2611
     30 C          20.7257   71.6760   -0.4900 C.3     1  UNL1        0.1582
     31 C          21.4057   70.5218   -1.2350 C.3     1  UNL1        0.1625
     32 C          20.3654   69.8313   -2.1233 C.3     1  UNL1        0.1686
     33 C          19.6989   70.8794   -3.0170 C.3     1  UNL1        0.1760
     34 O          21.9310   69.5863   -0.2913 O.3     1  UNL1       -0.3801
     35 O          21.0083   68.8475   -2.9360 O.3     1  UNL1       -0.3794
     36 O          19.0325   71.8486   -2.2088 O.3     1  UNL1       -0.3263
     37 H          22.3488   68.8792   -0.8019 H       1  UNL1        0.2105
     38 H          20.3190   68.4390   -3.4785 H       1  UNL1        0.2105
     39 C          21.8662   72.2769    1.5770 C.2     1  UNL1        0.2231
     40 C          22.9010   73.0681    2.3356 C.3     1  UNL1        0.0946
     41 N          21.7311   72.4440    0.2473 N.am    1  UNL1       -0.2994
     42 O          21.1544   71.4901    2.1639 O.2     1  UNL1       -0.2751
     43 H          22.3005   73.0738   -0.2225 H       1  UNL1        0.1496
     44 C          18.6808   70.1950   -3.9314 C.3     1  UNL1        0.1693
     45 O          17.3816   70.2736   -3.3415 O.3     1  UNL1       -0.3794
     46 H          16.7718   69.8316   -3.9477 H       1  UNL1        0.2105
@<TRIPOS>BOND
     1    29    30    1
     2    29    28    1
     3    29    36    1
     4    30    31    1
     5    30    41    1
     6    31    32    1
     7    31    34    1
     8    32    33    1
     9    32    35    1
    10    33    44    1
    11    33    36    1
    12    44    45    1
    13    39    40    1
    14    39    41   am
    15    39    42    2
    16    41    43    1
    17    28    25    1
    18    34    37    1
    19    35    38    1
    20    45    46    1
    21    15    16   ar
    22    15    20   ar
    23    15     6    1
    24    16    17   ar
    25    16    21    2
    26    17    18   ar
    27    17    23    1
    28    18    19   ar
    29    18    22    2
    30    19    20   ar
    31     6     7    1
    32     6    11    1
    33     7     8    1
    34     7     9    1
    35     8    13    1
    36     9    10    1
    37     9    12    1
    38    10    11    1
    39    10     5    1
    40    12    14    1
    41     5     4    1
    42     4     1    1
    43     1     2    2
    44     1     3    1
    45     1    24    1
    46    24    25    1
    47    25    26    2
    48    25    27    1
@<TRIPOS>MOLECULE
UD1
 46 48 0 0 0
SMALL
GASTEIGER

@<TRIPOS>ATOM
      1 P          23.0248   71.7660   -3.2259 P.3     1  UNL1        0.2189
      2 O          23.8210   70.5521   -2.9409 O.2     1  UNL1       -0.5170
      3 O          23.8961   72.7814   -4.1217 O.3     1  UNL1       -0.4371
      4 O          22.6247   72.4823   -1.8404 O.3     1  UNL1       -0.3112
      5 C          22.3072   71.4427   -0.9136 C.3     1  UNL1        0.1811
      6 C          21.1217   73.1892    1.9969 C.3     1  UNL1        0.2383
      7 C          21.0130   74.2261    0.8509 C.3     1  UNL1        0.1895
      8 O          19.9319   75.1304    1.0807 O.3     1  UNL1       -0.3779
      9 C          20.7283   73.3242   -0.3782 C.3     1  UNL1        0.1713
     10 C          21.2292   71.9327    0.0544 C.3     1  UNL1        0.1764
     11 O          21.7821   72.0665    1.3749 O.3     1  UNL1       -0.3308
     12 O          19.3279   73.2929   -0.6623 O.3     1  UNL1       -0.3794
     13 H          19.9192   75.7469    0.3355 H       1  UNL1        0.2106
     14 H          19.0641   74.1999   -0.8668 H       1  UNL1        0.2105
     15 N          21.9272   73.7160    3.0992 N.ar    1  UNL1       -0.2551
     16 C          23.1317   74.2564    2.8453 C.ar    1  UNL1        0.3323
     17 N          23.8925   74.7522    3.8391 N.ar    1  UNL1       -0.2743
     18 C          23.4587   74.7055    5.1149 C.ar    1  UNL1        0.2626
     19 C          22.1952   74.1338    5.3971 C.ar    1  UNL1        0.0795
     20 C          21.4503   73.6488    4.3805 C.ar    1  UNL1        0.0869
     21 O          23.5368   74.3059    1.6998 O.2     1  UNL1       -0.2464
     22 O          24.1477   75.1490    6.0148 O.2     1  UNL1       -0.2670
     23 H          24.7567   75.1428    3.6372 H       1  UNL1        0.1734
     24 O          21.6887   71.3564   -4.0234 O.3     1  UNL1       -0.2703
     25 P          21.2688   72.6305   -4.9121 P.3     1  UNL1        0.2208
     26 O          22.1667   72.7322   -6.0835 O.2     1  UNL1       -0.5170
     27 O          21.3915   73.9685   -4.0250 O.3     1  UNL1       -0.4371
     28 O          19.7492   72.4588   -5.4142 O.3     1  UNL1       -0.2865
     29 C          19.5547   71.0684   -5.6788 C.3     1  UNL1        0.2611
     30 C          18.3775   70.8971   -6.6404 C.3     1  UNL1        0.1582
     31 C          17.1216   71.5087   -6.0092 C.3     1  UNL1        0.1625
     32 C          16.9229   70.8946   -4.6194 C.3     1  UNL1        0.1686
     33 C          18.2091   71.0688   -3.8091 C.3     1  UNL1        0.1760
     34 O          15.9865   71.2239   -6.8289 O.3     1  UNL1       -0.3801
     35 O          15.8444   71.5554   -3.9547 O.3     1  UNL1       -0.3794
     36 O          19.2827   70.3868   -4.4562 O.3     1  UNL1       -0.3263
     37 H          15.2211   71.6262   -6.3957 H       1  UNL1        0.2105
     38 H          15.7545   71.1394   -3.0856 H       1  UNL1        0.2105
     39 C          19.5162   71.0161   -8.7906 C.2     1  UNL1        0.2231
     40 C          19.8207   71.7173  -10.0898 C.3     1  UNL1        0.0946
     41 N          18.6731   71.5777   -7.9029 N.am    1  UNL1       -0.2994
     42 O          20.0310   69.9464   -8.5440 O.2     1  UNL1       -0.2751
     43 H          18.2612   72.4339   -8.1000 H       1  UNL1        0.1496
     44 C          18.0103   70.4876   -2.4077 C.3     1  UNL1        0.1693
     45 O          18.3614   69.1024   -2.4119 O.3     1  UNL1       -0.3794
     46 H          18.2218   68.7757   -1.5128 H       1  UNL1        0.2105
@<TRIPOS>BOND
     1    29    30    1
     2    29    28    1
     3    29    36    1
     4    30    31    1
     5    30    41    1
     6    31    32    1
     7    31    34    1
     8    32    33    1
     9    32    35    1
    10    33    44    1
    11    33    36    1
    12    44    45    1
    13    39    40    1
    14    39    41   am
    15    39    42    2
    16    41    43    1
    17    28    25    1
    18    34    37    1
    19    35    38    1
    20    45    46    1
    21    15    16   ar
    22    15    20   ar
    23    15     6    1
    24    16    17   ar
    25    16    21    2
    26    17    18   ar
    27    17    23    1
    28    18    19   ar
    29    18    22    2
    30    19    20   ar
    31     6     7    1
    32     6    11    1
    33     7     8    1
    34     7     9    1
    35     8    13    1
    36     9    10    1
    37     9    12    1
    38    10    11    1
    39    10     5    1
    40    12    14    1
    41     5     4    1
    42     4     1    1
    43     1     2    2
    44     1     3    1
    45     1    24    1
    46    24    25    1
    47    25    26    2
    48    25    27    1
@<TRIPOS>MOLECULE
UD1
 46 48 0 0 0
SMALL
GASTEIGER

@<TRIPOS>ATOM
      1 P          21.9607   71.6004   -1.6489 P.3     1  UNL1        0.2189
      2 O          20.5347   71.9945   -1.6415 O.2     1  UNL1       -0.5170
      3 O          22.1612   70.2938   -0.7295 O.3     1  UNL1       -0.4371
      4 O          22.8534   72.8073   -1.0664 O.3     1  UNL1       -0.3112
      5 C          22.1864   73.2896    0.1010 C.3     1  UNL1        0.1811
      6 C          23.3341   73.5510    3.4983 C.3     1  UNL1        0.2383
      7 C          21.9861   72.7943    3.6011 C.3     1  UNL1        0.1895
      8 O          21.9893   71.8926    4.7084 O.3     1  UNL1       -0.3779
      9 C          21.9437   72.0207    2.2576 C.3     1  UNL1        0.1713
     10 C          22.9186   72.7944    1.3491 C.3     1  UNL1        0.1764
     11 O          23.4115   73.9148    2.1035 O.3     1  UNL1       -0.3308
     12 O          22.3837   70.6734    2.4419 O.3     1  UNL1       -0.3794
     13 H          21.1263   71.4558    4.7165 H       1  UNL1        0.2106
     14 H          21.7694   70.2617    3.0642 H       1  UNL1        0.2105
     15 N          23.3249   74.7455    4.3435 N.ar    1  UNL1       -0.2551
     16 C          24.3830   75.0149    5.1278 C.ar    1  UNL1        0.3323
     17 N          24.4036   76.1085    5.9125 N.ar    1  UNL1       -0.2743
     18 C          23.3516   76.9517    5.9308 C.ar    1  UNL1        0.2626
     19 C          22.2286   76.6769    5.1145 C.ar    1  UNL1        0.0795
     20 C          22.2366   75.5758    4.3330 C.ar    1  UNL1        0.0869
     21 O          25.3395   74.2640    5.1224 O.2     1  UNL1       -0.2464
     22 O          23.3671   77.9382    6.6434 O.2     1  UNL1       -0.2670
     23 H          25.1771   76.2899    6.4684 H       1  UNL1        0.1734
     24 O          22.4192   71.2729   -3.1559 O.3     1  UNL1       -0.2703
     25 P          22.5275   72.6819   -3.9255 P.3     1  UNL1        0.2208
     26 O          23.9524   73.0358   -4.1081 O.2     1  UNL1       -0.5170
     27 O          21.7982   73.8254   -3.0581 O.3     1  UNL1       -0.4371
     28 O          21.8151   72.5652   -5.3641 O.3     1  UNL1       -0.2865
     29 C          20.4489   72.9411   -5.1817 C.3     1  UNL1        0.2611
     30 C          19.5448   71.7890   -5.6237 C.3     1  UNL1        0.1582
     31 C          19.8258   71.4679   -7.0960 C.3     1  UNL1        0.1625
     32 C          19.6870   72.7563   -7.9138 C.3     1  UNL1        0.1686
     33 C          20.5829   73.8347   -7.3007 C.3     1  UNL1        0.1760
     34 O          18.8865   70.4974   -7.5621 O.3     1  UNL1       -0.3801
     35 O          20.0871   72.5111   -9.2634 O.3     1  UNL1       -0.3794
     36 O          20.1685   74.1016   -5.9614 O.3     1  UNL1       -0.3263
     37 H          19.0996   70.3252   -8.4896 H       1  UNL1        0.2105
     38 H          19.9851   73.3463   -9.7415 H       1  UNL1        0.2105
     39 C          18.8027   69.8497   -4.3500 C.2     1  UNL1        0.2231
     40 C          19.0861   68.6342   -3.5046 C.3     1  UNL1        0.0946
     41 N          19.8197   70.6079   -4.8029 N.am    1  UNL1       -0.2994
     42 O          17.6588   70.1456   -4.6220 O.2     1  UNL1       -0.2751
     43 H          20.7352   70.3715   -4.5851 H       1  UNL1        0.1496
     44 C          20.4764   75.1163   -8.1296 C.3     1  UNL1        0.1693
     45 O          19.1346   75.2724   -8.5958 O.3     1  UNL1       -0.3794
     46 H          19.1111   76.0893   -9.1123 H       1  UNL1        0.2105
@<TRIPOS>BOND
     1    29    30    1
     2    29    28    1
     3    29    36    1
     4    30    31    1
     5    30    41    1
     6    31    32    1
     7    31    34    1
     8    32    33    1
     9    32    35    1
    10    33    44    1
    11    33    36    1
    12    44    45    1
    13    39    40    1
    14    39    41   am
    15    39    42    2
    16    41    43    1
    17    28    25    1
    18    34    37    1
    19    35    38    1
    20    45    46    1
    21    15    16   ar
    22    15    20   ar
    23    15     6    1
    24    16    17   ar
    25    16    21    2
    26    17    18   ar
    27    17    23    1
    28    18    19   ar
    29    18    22    2
    30    19    20   ar
    31     6     7    1
    32     6    11    1
    33     7     8    1
    34     7     9    1
    35     8    13    1
    36     9    10    1
    37     9    12    1
    38    10    11    1
    39    10     5    1
    40    12    14    1
    41     5     4    1
    42     4     1    1
    43     1     2    2
    44     1     3    1
    45     1    24    1
    46    24    25    1
    47    25    26    2
    48    25    27    1
@<TRIPOS>MOLECULE
UD1
 46 48 0 0 0
SMALL
GASTEIGER

@<TRIPOS>ATOM
      1 P          22.8333   71.8838   -3.2785 P.3     1  UNL1        0.2189
      2 O          23.4821   70.5547   -3.2436 O.2     1  UNL1       -0.5170
      3 O          23.8084   72.9382   -4.0065 O.3     1  UNL1       -0.4371
      4 O          22.5394   72.3765   -1.7739 O.3     1  UNL1       -0.3112
      5 C          23.1155   73.6772   -1.6444 C.3     1  UNL1        0.1811
      6 C          21.6802   75.0759    1.3407 C.3     1  UNL1        0.2383
      7 C          22.8098   76.0630    0.9538 C.3     1  UNL1        0.1895
      8 O          22.4856   77.3941    1.3567 O.3     1  UNL1       -0.3779
      9 C          22.8320   75.9427   -0.5922 C.3     1  UNL1        0.1713
     10 C          22.1578   74.5856   -0.8718 C.3     1  UNL1        0.1764
     11 O          21.8407   73.9934    0.3994 O.3     1  UNL1       -0.3308
     12 O          22.0901   77.0093   -1.1878 O.3     1  UNL1       -0.3794
     13 H          23.2257   77.9561    1.0885 H       1  UNL1        0.2106
     14 H          22.5258   77.8319   -0.9276 H       1  UNL1        0.2105
     15 N          21.8559   74.5973    2.7124 N.ar    1  UNL1       -0.2551
     16 C          23.0942   74.4702    3.2203 C.ar    1  UNL1        0.3323
     17 N          23.2854   74.0361    4.4802 N.ar    1  UNL1       -0.2743
     18 C          22.2305   73.7112    5.2544 C.ar    1  UNL1        0.2626
     19 C          20.9217   73.8346    4.7303 C.ar    1  UNL1        0.0795
     20 C          20.7583   74.2775    3.4653 C.ar    1  UNL1        0.0869
     21 O          24.0557   74.7594    2.5344 O.2     1  UNL1       -0.2464
     22 O          22.4025   73.3141    6.3920 O.2     1  UNL1       -0.2670
     23 H          24.1854   73.9550    4.8318 H       1  UNL1        0.1734
     24 O          21.4478   71.7836   -4.0904 O.3     1  UNL1       -0.2703
     25 P          21.4805   72.9387   -5.2101 P.3     1  UNL1        0.2208
     26 O          22.7375   72.8399   -5.9840 O.2     1  UNL1       -0.5170
     27 O          21.4018   74.3803   -4.4974 O.3     1  UNL1       -0.4371
     28 O          20.2248   72.7626   -6.2015 O.3     1  UNL1       -0.2865
     29 C          20.2773   71.4260   -6.7034 C.3     1  UNL1        0.2611
     30 C          20.2380   71.4587   -8.2322 C.3     1  UNL1        0.1582
     31 C          18.9509   72.1568   -8.6857 C.3     1  UNL1        0.1625
     32 C          17.7573   71.4665   -8.0174 C.3     1  UNL1        0.1686
     33 C          17.9824   71.4359   -6.5042 C.3     1  UNL1        0.1760
     34 O          18.8296   72.0617  -10.1062 O.3     1  UNL1       -0.3801
     35 O          16.5610   72.1912   -8.3095 O.3     1  UNL1       -0.3794
     36 O          19.1617   70.6893   -6.2072 O.3     1  UNL1       -0.3263
     37 H          18.0088   72.5129  -10.3473 H       1  UNL1        0.2105
     38 H          15.8364   71.7239   -7.8701 H       1  UNL1        0.2105
     39 C          21.2975   73.5095   -9.0106 C.2     1  UNL1        0.2231
     40 C          22.4929   74.2666   -9.5302 C.3     1  UNL1        0.0946
     41 N          21.3992   72.1947   -8.7365 N.am    1  UNL1       -0.2994
     42 O          20.2434   74.0839   -8.8399 O.2     1  UNL1       -0.2751
     43 H          22.2425   71.7347   -8.8733 H       1  UNL1        0.1496
     44 C          16.7803   70.7772   -5.8242 C.3     1  UNL1        0.1693
     45 O          16.3989   69.6105   -6.5559 O.3     1  UNL1       -0.3794
     46 H          15.6403   69.2270   -6.0954 H       1  UNL1        0.2105
@<TRIPOS>BOND
     1    29    30    1
     2    29    28    1
     3    29    36    1
     4    30    31    1
     5    30    41    1
     6    31    32    1
     7    31    34    1
     8    32    33    1
     9    32    35    1
    10    33    44    1
    11    33    36    1
    12    44    45    1
    13    39    40    1
    14    39    41   am
    15    39    42    2
    16    41    43    1
    17    28    25    1
    18    34    37    1
    19    35    38    1
    20    45    46    1
    21    15    16   ar
    22    15    20   ar
    23    15     6    1
    24    16    17   ar
    25    16    21    2
    26    17    18   ar
    27    17    23    1
    28    18    19   ar
    29    18    22    2
    30    19    20   ar
    31     6     7    1
    32     6    11    1
    33     7     8    1
    34     7     9    1
    35     8    13    1
    36     9    10    1
    37     9    12    1
    38    10    11    1
    39    10     5    1
    40    12    14    1
    41     5     4    1
    42     4     1    1
    43     1     2    2
    44     1     3    1
    45     1    24    1
    46    24    25    1
    47    25    26    2
    48    25    27    1
@<TRIPOS>MOLECULE
UD1
 46 48 0 0 0
SMALL
GASTEIGER

@<TRIPOS>ATOM
      1 P          21.2305   70.9236   -2.3593 P.3     1  UNL1        0.2189
      2 O          22.5941   70.7027   -2.8890 O.2     1  UNL1       -0.5170
      3 O          20.5050   69.5036   -2.1357 O.3     1  UNL1       -0.4371
      4 O          20.3820   71.7989   -3.4113 O.3     1  UNL1       -0.3112
      5 C          19.9278   70.9012   -4.4253 C.3     1  UNL1        0.1811
      6 C          16.9545   71.8190   -6.2266 C.3     1  UNL1        0.2383
      7 C          17.1640   70.3208   -6.5609 C.3     1  UNL1        0.1895
      8 O          15.9144   69.6687   -6.7901 O.3     1  UNL1       -0.3779
      9 C          17.8364   69.7897   -5.2682 C.3     1  UNL1        0.1713
     10 C          18.4161   71.0523   -4.6018 C.3     1  UNL1        0.1764
     11 O          18.1338   72.1639   -5.4690 O.3     1  UNL1       -0.3308
     12 O          16.8686   69.1679   -4.4200 O.3     1  UNL1       -0.3794
     13 H          16.1138   68.7441   -6.9925 H       1  UNL1        0.2106
     14 H          16.5009   68.4235   -4.9147 H       1  UNL1        0.2105
     15 N          16.8750   72.6179   -7.4500 N.ar    1  UNL1       -0.2551
     16 C          17.9440   72.7030   -8.2609 C.ar    1  UNL1        0.3323
     17 N          17.8981   73.4274   -9.3946 N.ar    1  UNL1       -0.2743
     18 C          16.7739   74.0911   -9.7319 C.ar    1  UNL1        0.2626
     19 C          15.6432   74.0151   -8.8842 C.ar    1  UNL1        0.0795
     20 C          15.7149   73.2769   -7.7558 C.ar    1  UNL1        0.0869
     21 O          18.9650   72.1100   -7.9704 O.2     1  UNL1       -0.2464
     22 O          16.7329   74.7502  -10.7542 O.2     1  UNL1       -0.2670
     23 H          18.6770   73.4737   -9.9702 H       1  UNL1        0.1734
     24 O          21.3199   71.7083   -0.9575 O.3     1  UNL1       -0.2703
     25 P          22.3043   70.8577   -0.0105 P.3     1  UNL1        0.2208
     26 O          23.4482   70.3618   -0.8071 O.2     1  UNL1       -0.5170
     27 O          21.5033   69.6077    0.6126 O.3     1  UNL1       -0.4371
     28 O          22.8462   71.7939    1.1812 O.3     1  UNL1       -0.2865
     29 C          21.9208   72.8744    1.3130 C.3     1  UNL1        0.2611
     30 C          22.6165   74.1839    0.9372 C.3     1  UNL1        0.1582
     31 C          23.8250   74.3913    1.8570 C.3     1  UNL1        0.1625
     32 C          23.3551   74.2970    3.3125 C.3     1  UNL1        0.1686
     33 C          22.6062   72.9773    3.5098 C.3     1  UNL1        0.1760
     34 O          24.3941   75.6796    1.6167 O.3     1  UNL1       -0.3801
     35 O          24.4866   74.3409    4.1838 O.3     1  UNL1       -0.3794
     36 O          21.4598   72.9418    2.6607 O.3     1  UNL1       -0.3263
     37 H          25.1492   75.7674    2.2146 H       1  UNL1        0.2105
     38 H          24.1463   74.2780    5.0876 H       1  UNL1        0.2105
     39 C          22.9090   75.1829   -1.2652 C.2     1  UNL1        0.2231
     40 C          23.3707   75.1146   -2.6986 C.3     1  UNL1        0.0946
     41 N          23.0653   74.1182   -0.4552 N.am    1  UNL1       -0.2994
     42 O          22.3960   76.1964   -0.8412 O.2     1  UNL1       -0.2751
     43 H          23.4756   73.3069   -0.7944 H       1  UNL1        0.1496
     44 C          22.1606   72.8584    4.9687 C.3     1  UNL1        0.1693
     45 O          20.7566   73.1084    5.0603 O.3     1  UNL1       -0.3794
     46 H          20.5177   73.0241    5.9933 H       1  UNL1        0.2105
@<TRIPOS>BOND
     1    29    30    1
     2    29    28    1
     3    29    36    1
     4    30    31    1
     5    30    41    1
     6    31    32    1
     7    31    34    1
     8    32    33    1
     9    32    35    1
    10    33    44    1
    11    33    36    1
    12    44    45    1
    13    39    40    1
    14    39    41   am
    15    39    42    2
    16    41    43    1
    17    28    25    1
    18    34    37    1
    19    35    38    1
    20    45    46    1
    21    15    16   ar
    22    15    20   ar
    23    15     6    1
    24    16    17   ar
    25    16    21    2
    26    17    18   ar
    27    17    23    1
    28    18    19   ar
    29    18    22    2
    30    19    20   ar
    31     6     7    1
    32     6    11    1
    33     7     8    1
    34     7     9    1
    35     8    13    1
    36     9    10    1
    37     9    12    1
    38    10    11    1
    39    10     5    1
    40    12    14    1
    41     5     4    1
    42     4     1    1
    43     1     2    2
    44     1     3    1
    45     1    24    1
    46    24    25    1
    47    25    26    2
    48    25    27    1
@<TRIPOS>MOLECULE
UD1
 46 48 0 0 0
SMALL
GASTEIGER

@<TRIPOS>ATOM
      1 P          19.4954   69.7664   -3.1833 P.3     1  UNL1        0.2189
      2 O          18.5221   68.9485   -2.4266 O.2     1  UNL1       -0.5170
      3 O          20.9690   69.1398   -3.0145 O.3     1  UNL1       -0.4371
      4 O          19.4857   71.2731   -2.6154 O.3     1  UNL1       -0.3112
      5 C          20.1588   71.2450   -1.3559 C.3     1  UNL1        0.1811
      6 C          21.6153   73.7227    0.8045 C.3     1  UNL1        0.2383
      7 C          22.8116   73.1609   -0.0037 C.3     1  UNL1        0.1895
      8 O          23.8155   74.1590   -0.1914 O.3     1  UNL1       -0.3779
      9 C          22.1455   72.7855   -1.3530 C.3     1  UNL1        0.1713
     10 C          20.6498   72.6510   -1.0075 C.3     1  UNL1        0.1764
     11 O          20.5129   72.8806    0.4052 O.3     1  UNL1       -0.3308
     12 O          22.3517   73.8198   -2.3176 O.3     1  UNL1       -0.3794
     13 H          24.5288   73.7471   -0.6984 H       1  UNL1        0.2106
     14 H          23.3066   73.8956   -2.4460 H       1  UNL1        0.2105
     15 N          21.8594   73.6059    2.2426 N.ar    1  UNL1       -0.2551
     16 C          21.7356   72.4102    2.8446 C.ar    1  UNL1        0.3323
     17 N          21.9579   72.2727    4.1651 N.ar    1  UNL1       -0.2743
     18 C          22.3017   73.3418    4.9113 C.ar    1  UNL1        0.2626
     19 C          22.4297   74.6076    4.2915 C.ar    1  UNL1        0.0795
     20 C          22.2062   74.7163    2.9643 C.ar    1  UNL1        0.0869
     21 O          21.4263   71.4366    2.1850 O.2     1  UNL1       -0.2464
     22 O          22.4983   73.2195    6.1062 O.2     1  UNL1       -0.2670
     23 H          21.8687   71.4017    4.5819 H       1  UNL1        0.1734
     24 O          19.0911   69.7775   -4.7407 O.3     1  UNL1       -0.2703
     25 P          17.5708   70.2984   -4.8225 P.3     1  UNL1        0.2208
     26 O          17.0653   70.5611   -3.4572 O.2     1  UNL1       -0.5170
     27 O          16.6554   69.1762   -5.5262 O.3     1  UNL1       -0.4371
     28 O          17.5129   71.6551   -5.6864 O.3     1  UNL1       -0.2865
     29 C          16.2228   71.7020   -6.2986 C.3     1  UNL1        0.2611
     30 C          16.3839   71.9683   -7.7963 C.3     1  UNL1        0.1582
     31 C          17.1245   73.2959   -7.9925 C.3     1  UNL1        0.1625
     32 C          16.3868   74.3887   -7.2116 C.3     1  UNL1        0.1686
     33 C          16.2282   73.9410   -5.7571 C.3     1  UNL1        0.1760
     34 O          17.1496   73.6295   -9.3816 O.3     1  UNL1       -0.3801
     35 O          17.1399   75.6020   -7.2603 O.3     1  UNL1       -0.3794
     36 O          15.4531   72.7440   -5.7028 O.3     1  UNL1       -0.3263
     37 H          17.6237   74.4688   -9.4589 H       1  UNL1        0.2105
     38 H          16.6412   76.2611   -6.7569 H       1  UNL1        0.2105
     39 C          18.4839   71.0096   -8.5743 C.2     1  UNL1        0.2231
     40 C          19.2756   69.8917   -9.2035 C.3     1  UNL1        0.0946
     41 N          17.1535   70.8824   -8.4070 N.am    1  UNL1       -0.2994
     42 O          19.0447   72.0243   -8.2191 O.2     1  UNL1       -0.2751
     43 H          16.7044   70.0706   -8.6914 H       1  UNL1        0.1496
     44 C          15.5212   75.0397   -4.9608 C.3     1  UNL1        0.1693
     45 O          14.5829   75.7110   -5.8040 O.3     1  UNL1       -0.3794
     46 H          14.1608   76.3936   -5.2651 H       1  UNL1        0.2105
@<TRIPOS>BOND
     1    29    30    1
     2    29    28    1
     3    29    36    1
     4    30    31    1
     5    30    41    1
     6    31    32    1
     7    31    34    1
     8    32    33    1
     9    32    35    1
    10    33    44    1
    11    33    36    1
    12    44    45    1
    13    39    40    1
    14    39    41   am
    15    39    42    2
    16    41    43    1
    17    28    25    1
    18    34    37    1
    19    35    38    1
    20    45    46    1
    21    15    16   ar
    22    15    20   ar
    23    15     6    1
    24    16    17   ar
    25    16    21    2
    26    17    18   ar
    27    17    23    1
    28    18    19   ar
    29    18    22    2
    30    19    20   ar
    31     6     7    1
    32     6    11    1
    33     7     8    1
    34     7     9    1
    35     8    13    1
    36     9    10    1
    37     9    12    1
    38    10    11    1
    39    10     5    1
    40    12    14    1
    41     5     4    1
    42     4     1    1
    43     1     2    2
    44     1     3    1
    45     1    24    1
    46    24    25    1
    47    25    26    2
    48    25    27    1
@<TRIPOS>MOLECULE
UD1
 46 48 0 0 0
SMALL
GASTEIGER

@<TRIPOS>ATOM
      1 P          19.8415   70.0780   -2.6443 P.3     1  UNL1        0.2189
      2 O          21.0076   69.2045   -2.9010 O.2     1  UNL1       -0.5170
      3 O          18.6188   69.1909   -2.0869 O.3     1  UNL1       -0.4371
      4 O          19.3993   70.7985   -4.0147 O.3     1  UNL1       -0.3112
      5 C          17.9711   70.8088   -4.0349 C.3     1  UNL1        0.1811
      6 C          18.4204   72.3478   -7.2530 C.3     1  UNL1        0.2383
      7 C          18.2998   70.8341   -7.5601 C.3     1  UNL1        0.1895
      8 O          17.7100   70.6181   -8.8426 O.3     1  UNL1       -0.3779
      9 C          17.3580   70.3463   -6.4286 C.3     1  UNL1        0.1713
     10 C          17.4830   71.4328   -5.3431 C.3     1  UNL1        0.1764
     11 O          18.4395   72.3992   -5.8106 O.3     1  UNL1       -0.3308
     12 O          16.0125   70.2554   -6.9020 O.3     1  UNL1       -0.3794
     13 H          17.6641   69.6607   -8.9722 H       1  UNL1        0.2106
     14 H          16.0114   69.6055   -7.6174 H       1  UNL1        0.2105
     15 N          19.6613   72.8925   -7.8053 N.ar    1  UNL1       -0.2551
     16 C          20.6904   72.0692   -8.0707 C.ar    1  UNL1        0.3323
     17 N          21.8422   72.5420   -8.5826 N.ar    1  UNL1       -0.2743
     18 C          21.9854   73.8596   -8.8302 C.ar    1  UNL1        0.2626
     19 C          20.9120   74.7385   -8.5500 C.ar    1  UNL1        0.0795
     20 C          19.7660   74.2367   -8.0418 C.ar    1  UNL1        0.0869
     21 O          20.5765   70.8783   -7.8528 O.2     1  UNL1       -0.2464
     22 O          23.0280   74.2889   -9.2886 O.2     1  UNL1       -0.2670
     23 H          22.5725   71.9331   -8.7724 H       1  UNL1        0.1734
     24 O          20.2365   71.1941   -1.5547 O.3     1  UNL1       -0.2703
     25 P          21.6412   70.7413   -0.9136 P.3     1  UNL1        0.2208
     26 O          22.5662   70.3306   -1.9928 O.2     1  UNL1       -0.5170
     27 O          21.4011   69.5027    0.0866 O.3     1  UNL1       -0.4371
     28 O          22.2816   71.9719   -0.0975 O.3     1  UNL1       -0.2865
     29 C          21.1922   72.7383    0.4192 C.3     1  UNL1        0.2611
     30 C          21.5093   74.2278    0.2749 C.3     1  UNL1        0.1582
     31 C          22.8013   74.5413    1.0378 C.3     1  UNL1        0.1625
     32 C          22.6527   74.0430    2.4792 C.3     1  UNL1        0.1686
     33 C          22.2523   72.5663    2.4571 C.3     1  UNL1        0.1760
     34 O          23.0279   75.9520    1.0363 O.3     1  UNL1       -0.3801
     35 O          23.8962   74.1921    3.1670 O.3     1  UNL1       -0.3794
     36 O          20.9971   72.4170    1.7947 O.3     1  UNL1       -0.3263
     37 H          23.8484   76.1037    1.5252 H       1  UNL1        0.2105
     38 H          23.7583   73.8665    4.0679 H       1  UNL1        0.2105
     39 C          22.9112   74.5250   -1.6951 C.2     1  UNL1        0.2231
     40 C          23.0902   74.8641   -3.1529 C.3     1  UNL1        0.0946
     41 N          21.6837   74.5566   -1.1414 N.am    1  UNL1       -0.2994
     42 O          23.8725   74.2242   -1.0201 O.2     1  UNL1       -0.2751
     43 H          20.9143   74.7975   -1.6813 H       1  UNL1        0.1496
     44 C          22.1328   72.0501    3.8925 C.3     1  UNL1        0.1693
     45 O          21.4571   73.0213    4.6938 O.3     1  UNL1       -0.3794
     46 H          21.4033   72.6578    5.5880 H       1  UNL1        0.2105
@<TRIPOS>BOND
     1    29    30    1
     2    29    28    1
     3    29    36    1
     4    30    31    1
     5    30    41    1
     6    31    32    1
     7    31    34    1
     8    32    33    1
     9    32    35    1
    10    33    44    1
    11    33    36    1
    12    44    45    1
    13    39    40    1
    14    39    41   am
    15    39    42    2
    16    41    43    1
    17    28    25    1
    18    34    37    1
    19    35    38    1
    20    45    46    1
    21    15    16   ar
    22    15    20   ar
    23    15     6    1
    24    16    17   ar
    25    16    21    2
    26    17    18   ar
    27    17    23    1
    28    18    19   ar
    29    18    22    2
    30    19    20   ar
    31     6     7    1
    32     6    11    1
    33     7     8    1
    34     7     9    1
    35     8    13    1
    36     9    10    1
    37     9    12    1
    38    10    11    1
    39    10     5    1
    40    12    14    1
    41     5     4    1
    42     4     1    1
    43     1     2    2
    44     1     3    1
    45     1    24    1
    46    24    25    1
    47    25    26    2
    48    25    27    1
@<TRIPOS>MOLECULE
UD1
 46 48 0 0 0
SMALL
GASTEIGER

@<TRIPOS>ATOM
      1 P          22.7464   72.0381   -3.1260 P.3     1  UNL1        0.2189
      2 O          23.0381   70.5878   -3.1455 O.2     1  UNL1       -0.5170
      3 O          23.7857   72.8076   -4.0852 O.3     1  UNL1       -0.4371
      4 O          22.8931   72.5941   -1.6219 O.3     1  UNL1       -0.3112
      5 C          22.4885   71.5383   -0.7490 C.3     1  UNL1        0.1811
      6 C          20.5086   72.8494    1.9506 C.3     1  UNL1        0.2383
      7 C          20.7370   74.0611    1.0127 C.3     1  UNL1        0.1895
      8 O          19.6356   74.9681    1.0720 O.3     1  UNL1       -0.3779
      9 C          20.8217   73.3837   -0.3798 C.3     1  UNL1        0.1713
     10 C          21.1758   71.9180   -0.0621 C.3     1  UNL1        0.1764
     11 O          21.3214   71.8107    1.3642 O.3     1  UNL1       -0.3308
     12 O          19.5640   73.4665   -1.0538 O.3     1  UNL1       -0.3794
     13 H          19.8396   75.6964    0.4690 H       1  UNL1        0.2106
     14 H          19.3708   74.4063   -1.1699 H       1  UNL1        0.2105
     15 N          20.9592   73.1522    3.3095 N.ar    1  UNL1       -0.2551
     16 C          20.1141   73.7352    4.1774 C.ar    1  UNL1        0.3323
     17 N          20.5003   74.0216    5.4348 N.ar    1  UNL1       -0.2743
     18 C          21.7528   73.7343    5.8430 C.ar    1  UNL1        0.2626
     19 C          22.6547   73.1259    4.9378 C.ar    1  UNL1        0.0795
     20 C          22.2395   72.8447    3.6841 C.ar    1  UNL1        0.0869
     21 O          18.9812   74.0004    3.8242 O.2     1  UNL1       -0.2464
     22 O          22.1046   73.9971    6.9782 O.2     1  UNL1       -0.2670
     23 H          19.8761   74.4379    6.0490 H       1  UNL1        0.1734
     24 O          21.2453   72.2907   -3.6473 O.3     1  UNL1       -0.2703
     25 P          21.3616   72.8050   -5.1676 P.3     1  UNL1        0.2208
     26 O          22.7188   72.5192   -5.6824 O.2     1  UNL1       -0.5170
     27 O          21.0915   74.3913   -5.2203 O.3     1  UNL1       -0.4371
     28 O          20.2719   72.0460   -6.0770 O.3     1  UNL1       -0.2865
     29 C          19.2158   72.9766   -6.3217 C.3     1  UNL1        0.2611
     30 C          17.8797   72.3351   -5.9431 C.3     1  UNL1        0.1582
     31 C          17.6820   71.0617   -6.7732 C.3     1  UNL1        0.1625
     32 C          17.8392   71.4140   -8.2562 C.3     1  UNL1        0.1686
     33 C          19.1800   72.1223   -8.4607 C.3     1  UNL1        0.1760
     34 O          16.3746   70.5354   -6.5386 O.3     1  UNL1       -0.3801
     35 O          17.8046   70.2183   -9.0377 O.3     1  UNL1       -0.3794
     36 O          19.2072   73.3312   -7.7028 O.3     1  UNL1       -0.3263
     37 H          16.2937   69.7372   -7.0787 H       1  UNL1        0.2105
     38 H          17.9075   70.4853   -9.9622 H       1  UNL1        0.2105
     39 C          16.7334   71.9985   -3.8202 C.2     1  UNL1        0.2231
     40 C          16.7396   71.6500   -2.3536 C.3     1  UNL1        0.0946
     41 N          17.8851   71.9962   -4.5185 N.am    1  UNL1       -0.2994
     42 O          15.6913   72.2817   -4.3716 O.2     1  UNL1       -0.2751
     43 H          18.7192   71.7698   -4.0774 H       1  UNL1        0.1496
     44 C          19.3613   72.4496   -9.9443 C.3     1  UNL1        0.1693
     45 O          18.1244   72.9204  -10.4834 O.3     1  UNL1       -0.3794
     46 H          18.2820   73.1144  -11.4173 H       1  UNL1        0.2105
@<TRIPOS>BOND
     1    29    30    1
     2    29    28    1
     3    29    36    1
     4    30    31    1
     5    30    41    1
     6    31    32    1
     7    31    34    1
     8    32    33    1
     9    32    35    1
    10    33    44    1
    11    33    36    1
    12    44    45    1
    13    39    40    1
    14    39    41   am
    15    39    42    2
    16    41    43    1
    17    28    25    1
    18    34    37    1
    19    35    38    1
    20    45    46    1
    21    15    16   ar
    22    15    20   ar
    23    15     6    1
    24    16    17   ar
    25    16    21    2
    26    17    18   ar
    27    17    23    1
    28    18    19   ar
    29    18    22    2
    30    19    20   ar
    31     6     7    1
    32     6    11    1
    33     7     8    1
    34     7     9    1
    35     8    13    1
    36     9    10    1
    37     9    12    1
    38    10    11    1
    39    10     5    1
    40    12    14    1
    41     5     4    1
    42     4     1    1
    43     1     2    2
    44     1     3    1
    45     1    24    1
    46    24    25    1
    47    25    26    2
    48    25    27    1
@<TRIPOS>MOLECULE
UD1
 46 48 0 0 0
SMALL
GASTEIGER

@<TRIPOS>ATOM
      1 P          22.3838   71.9021   -2.8783 P.3     1  UNL1        0.2189
      2 O          22.7497   70.6499   -2.1805 O.2     1  UNL1       -0.5170
      3 O          23.7218   72.6778   -3.3260 O.3     1  UNL1       -0.4371
      4 O          21.5284   72.8384   -1.8861 O.3     1  UNL1       -0.3112
      5 C          22.4666   73.5576   -1.0843 C.3     1  UNL1        0.1811
      6 C          22.7329   73.2282    2.4861 C.3     1  UNL1        0.2383
      7 C          21.2709   72.8270    2.1672 C.3     1  UNL1        0.1895
      8 O          20.7904   71.8607    3.1026 O.3     1  UNL1       -0.3779
      9 C          21.4045   72.2080    0.7515 C.3     1  UNL1        0.1713
     10 C          22.7259   72.7888    0.2122 C.3     1  UNL1        0.1764
     11 O          23.2439   73.6804    1.2141 O.3     1  UNL1       -0.3308
     12 O          21.4732   70.7827    0.8331 O.3     1  UNL1       -0.3794
     13 H          19.8798   71.6549    2.8499 H       1  UNL1        0.2106
     14 H          20.6446   70.4855    1.2320 H       1  UNL1        0.2105
     15 N          22.7717   74.3092    3.4717 N.ar    1  UNL1       -0.2551
     16 C          22.2026   75.4929    3.1851 C.ar    1  UNL1        0.3323
     17 N          22.2197   76.5036    4.0741 N.ar    1  UNL1       -0.2743
     18 C          22.8204   76.3458    5.2708 C.ar    1  UNL1        0.2626
     19 C          23.4287   75.1068    5.5832 C.ar    1  UNL1        0.0795
     20 C          23.3922   74.1081    4.6752 C.ar    1  UNL1        0.0869
     21 O          21.6568   75.6506    2.1099 O.2     1  UNL1       -0.2464
     22 O          22.8407   77.2605    6.0735 O.2     1  UNL1       -0.2670
     23 H          21.8000   77.3492    3.8525 H       1  UNL1        0.1734
     24 O          21.5034   71.5539   -4.1793 O.3     1  UNL1       -0.2703
     25 P          20.2152   70.7386   -3.6643 P.3     1  UNL1        0.2208
     26 O          19.7090   71.3529   -2.4171 O.2     1  UNL1       -0.5170
     27 O          20.6263   69.2083   -3.3794 O.3     1  UNL1       -0.4371
     28 O          19.0652   70.7832   -4.7894 O.3     1  UNL1       -0.2865
     29 C          19.1334   72.0727   -5.4009 C.3     1  UNL1        0.2611
     30 C          17.7563   72.7357   -5.3364 C.3     1  UNL1        0.1582
     31 C          16.7378   71.8471   -6.0594 C.3     1  UNL1        0.1625
     32 C          17.2562   71.5568   -7.4719 C.3     1  UNL1        0.1686
     33 C          18.6700   70.9798   -7.3751 C.3     1  UNL1        0.1760
     34 O          15.4817   72.5235   -6.1363 O.3     1  UNL1       -0.3801
     35 O          16.3959   70.6125   -8.1120 O.3     1  UNL1       -0.3794
     36 O          19.5381   71.9314   -6.7609 O.3     1  UNL1       -0.3263
     37 H          14.8725   71.9301   -6.5969 H       1  UNL1        0.2105
     38 H          16.7584   70.4581   -8.9959 H       1  UNL1        0.2105
     39 C          16.6004   71.9626   -3.3362 C.2     1  UNL1        0.2231
     40 C          16.1894   72.1334   -1.8960 C.3     1  UNL1        0.0946
     41 N          17.3572   72.9009   -3.9372 N.am    1  UNL1       -0.2994
     42 O          16.2492   70.9805   -3.9546 O.2     1  UNL1       -0.2751
     43 H          17.6382   73.6870   -3.4426 H       1  UNL1        0.1496
     44 C          19.1846   70.6559   -8.7792 C.3     1  UNL1        0.1693
     45 O          18.4999   71.4663   -9.7365 O.3     1  UNL1       -0.3794
     46 H          18.8526   71.2313  -10.6054 H       1  UNL1        0.2105
@<TRIPOS>BOND
     1    29    30    1
     2    29    28    1
     3    29    36    1
     4    30    31    1
     5    30    41    1
     6    31    32    1
     7    31    34    1
     8    32    33    1
     9    32    35    1
    10    33    44    1
    11    33    36    1
    12    44    45    1
    13    39    40    1
    14    39    41   am
    15    39    42    2
    16    41    43    1
    17    28    25    1
    18    34    37    1
    19    35    38    1
    20    45    46    1
    21    15    16   ar
    22    15    20   ar
    23    15     6    1
    24    16    17   ar
    25    16    21    2
    26    17    18   ar
    27    17    23    1
    28    18    19   ar
    29    18    22    2
    30    19    20   ar
    31     6     7    1
    32     6    11    1
    33     7     8    1
    34     7     9    1
    35     8    13    1
    36     9    10    1
    37     9    12    1
    38    10    11    1
    39    10     5    1
    40    12    14    1
    41     5     4    1
    42     4     1    1
    43     1     2    2
    44     1     3    1
    45     1    24    1
    46    24    25    1
    47    25    26    2
    48    25    27    1
@<TRIPOS>MOLECULE
UD1
 46 48 0 0 0
SMALL
GASTEIGER

@<TRIPOS>ATOM
      1 P          22.8357   72.0428   -3.3654 P.3     1  UNL1        0.2189
      2 O          23.3878   70.7385   -2.9377 O.2     1  UNL1       -0.5170
      3 O          23.9599   72.8613   -4.1771 O.3     1  UNL1       -0.4371
      4 O          22.3897   72.8872   -2.0689 O.3     1  UNL1       -0.3112
      5 C          21.8995   71.9474   -1.1114 C.3     1  UNL1        0.1811
      6 C          22.9478   74.2261    1.4647 C.3     1  UNL1        0.2383
      7 C          21.4484   73.9704    1.7592 C.3     1  UNL1        0.1895
      8 O          21.1798   74.0608    3.1588 O.3     1  UNL1       -0.3779
      9 C          21.2602   72.5168    1.2523 C.3     1  UNL1        0.1713
     10 C          22.4338   72.3059    0.2762 C.3     1  UNL1        0.1764
     11 O          23.1677   73.5406    0.2135 O.3     1  UNL1       -0.3308
     12 O          21.3345   71.5938    2.3410 O.3     1  UNL1       -0.3794
     13 H          20.2342   73.8929    3.2740 H       1  UNL1        0.2106
     14 H          20.6125   71.8149    2.9443 H       1  UNL1        0.2105
     15 N          23.2123   75.6582    1.3221 N.ar    1  UNL1       -0.2551
     16 C          22.6477   76.3427    0.3121 C.ar    1  UNL1        0.3323
     17 N          22.8701   77.6615    0.1589 N.ar    1  UNL1       -0.2743
     18 C          23.6759   78.3189    1.0170 C.ar    1  UNL1        0.2626
     19 C          24.2816   77.6093    2.0813 C.ar    1  UNL1        0.0795
     20 C          24.0370   76.2880    2.2147 C.ar    1  UNL1        0.0869
     21 O          21.9184   75.7639   -0.4701 O.2     1  UNL1       -0.2464
     22 O          23.8816   79.5103    0.8766 O.2     1  UNL1       -0.2670
     23 H          22.4508   78.1404   -0.5726 H       1  UNL1        0.1734
     24 O          21.5582   71.8000   -4.3130 O.3     1  UNL1       -0.2703
     25 P          21.5275   73.0118   -5.3713 P.3     1  UNL1        0.2208
     26 O          22.7575   72.9804   -6.1928 O.2     1  UNL1       -0.5170
     27 O          21.4459   74.4127   -4.5819 O.3     1  UNL1       -0.4371
     28 O          20.2406   72.8597   -6.3259 O.3     1  UNL1       -0.2865
     29 C          20.2790   71.5375   -6.8658 C.3     1  UNL1        0.2611
     30 C          20.2434   71.6144   -8.3932 C.3     1  UNL1        0.1582
     31 C          18.9654   72.3399   -8.8289 C.3     1  UNL1        0.1625
     32 C          17.7624   71.6444   -8.1828 C.3     1  UNL1        0.1686
     33 C          17.9839   71.5680   -6.6707 C.3     1  UNL1        0.1760
     34 O          18.8460   72.2870  -10.2517 O.3     1  UNL1       -0.3801
     35 O          16.5752   72.3908   -8.4563 O.3     1  UNL1       -0.3794
     36 O          19.1540   70.7997   -6.3930 O.3     1  UNL1       -0.3263
     37 H          18.0310   72.7542  -10.4813 H       1  UNL1        0.2105
     38 H          15.8444   71.9194   -8.0318 H       1  UNL1        0.2105
     39 C          21.3419   73.6829   -9.0632 C.2     1  UNL1        0.2231
     40 C          22.5470   74.4408   -9.5587 C.3     1  UNL1        0.0946
     41 N          21.4140   72.3512   -8.8740 N.am    1  UNL1       -0.2994
     42 O          20.3068   74.2718   -8.8355 O.2     1  UNL1       -0.2751
     43 H          22.2422   71.8796   -9.0564 H       1  UNL1        0.1496
     44 C          16.7729   70.9039   -6.0122 C.3     1  UNL1        0.1693
     45 O          15.8529   71.9093   -5.5823 O.3     1  UNL1       -0.3794
     46 H          15.1068   71.4497   -5.1739 H       1  UNL1        0.2105
@<TRIPOS>BOND
     1    29    30    1
     2    29    28    1
     3    29    36    1
     4    30    31    1
     5    30    41    1
     6    31    32    1
     7    31    34    1
     8    32    33    1
     9    32    35    1
    10    33    44    1
    11    33    36    1
    12    44    45    1
    13    39    40    1
    14    39    41   am
    15    39    42    2
    16    41    43    1
    17    28    25    1
    18    34    37    1
    19    35    38    1
    20    45    46    1
    21    15    16   ar
    22    15    20   ar
    23    15     6    1
    24    16    17   ar
    25    16    21    2
    26    17    18   ar
    27    17    23    1
    28    18    19   ar
    29    18    22    2
    30    19    20   ar
    31     6     7    1
    32     6    11    1
    33     7     8    1
    34     7     9    1
    35     8    13    1
    36     9    10    1
    37     9    12    1
    38    10    11    1
    39    10     5    1
    40    12    14    1
    41     5     4    1
    42     4     1    1
    43     1     2    2
    44     1     3    1
    45     1    24    1
    46    24    25    1
    47    25    26    2
    48    25    27    1
@<TRIPOS>MOLECULE
UD1
 46 48 0 0 0
SMALL
GASTEIGER

@<TRIPOS>ATOM
      1 P          22.0292   73.5394   -4.8871 P.3     1  UNL1        0.2189
      2 O          23.3603   72.9033   -4.7765 O.2     1  UNL1       -0.5170
      3 O          22.1787   75.1322   -4.7051 O.3     1  UNL1       -0.4371
      4 O          21.0602   72.9578   -3.7400 O.3     1  UNL1       -0.3112
      5 C          21.3839   73.6513   -2.5339 C.3     1  UNL1        0.1811
      6 C          22.3012   72.1788    0.6153 C.3     1  UNL1        0.2383
      7 C          21.2978   71.1746   -0.0052 C.3     1  UNL1        0.1895
      8 O          21.5915   69.8388    0.4056 O.3     1  UNL1       -0.3779
      9 C          21.5534   71.3553   -1.5241 C.3     1  UNL1        0.1713
     10 C          22.2173   72.7419   -1.6296 C.3     1  UNL1        0.1764
     11 O          22.2755   73.2924   -0.3027 O.3     1  UNL1       -0.3308
     12 O          22.4299   70.3357   -2.0088 O.3     1  UNL1       -0.3794
     13 H          20.9338   69.2661   -0.0126 H       1  UNL1        0.2106
     14 H          21.9843   69.4909   -1.8607 H       1  UNL1        0.2105
     15 N          21.8611   72.5972    1.9467 N.ar    1  UNL1       -0.2551
     16 C          22.2732   71.9153    3.0296 C.ar    1  UNL1        0.3323
     17 N          21.8874   72.2800    4.2666 N.ar    1  UNL1       -0.2743
     18 C          21.0682   73.3370    4.4390 C.ar    1  UNL1        0.2626
     19 C          20.6220   74.0601    3.3072 C.ar    1  UNL1        0.0795
     20 C          21.0286   73.6759    2.0783 C.ar    1  UNL1        0.0869
     21 O          23.0123   70.9598    2.8904 O.2     1  UNL1       -0.2464
     22 O          20.7149   73.6647    5.5566 O.2     1  UNL1       -0.2670
     23 H          22.1982   71.7796    5.0368 H       1  UNL1        0.1734
     24 O          21.4002   73.2202   -6.3332 O.3     1  UNL1       -0.2703
     25 P          19.8735   73.7275   -6.2985 P.3     1  UNL1        0.2208
     26 O          19.4794   74.1978   -7.6447 O.2     1  UNL1       -0.5170
     27 O          19.7332   74.9376   -5.2458 O.3     1  UNL1       -0.4371
     28 O          18.9139   72.5152   -5.8513 O.3     1  UNL1       -0.2865
     29 C          19.2855   71.3811   -6.6367 C.3     1  UNL1        0.2611
     30 C          18.0453   70.8239   -7.3376 C.3     1  UNL1        0.1582
     31 C          17.0055   70.4333   -6.2812 C.3     1  UNL1        0.1625
     32 C          17.6642   69.4873   -5.2716 C.3     1  UNL1        0.1686
     33 C          18.9317   70.1468   -4.7242 C.3     1  UNL1        0.1760
     34 O          15.9057   69.7749   -6.9123 O.3     1  UNL1       -0.3801
     35 O          16.7574   69.2272   -4.1983 O.3     1  UNL1       -0.3794
     36 O          19.8510   70.3829   -5.7898 O.3     1  UNL1       -0.3263
     37 H          15.2774   69.5478   -6.2130 H       1  UNL1        0.2105
     38 H          17.2114   68.6299   -3.5871 H       1  UNL1        0.2105
     39 C          16.4627   72.6162   -7.8042 C.2     1  UNL1        0.2231
     40 C          15.8847   73.6665   -8.7179 C.3     1  UNL1        0.0946
     41 N          17.4837   71.8447   -8.2247 N.am    1  UNL1       -0.2994
     42 O          16.0082   72.4649   -6.6903 O.2     1  UNL1       -0.2751
     43 H          17.8474   71.9654   -9.1161 H       1  UNL1        0.1496
     44 C          19.5799   69.2235   -3.6904 C.3     1  UNL1        0.1693
     45 O          18.8547   69.3004   -2.4615 O.3     1  UNL1       -0.3794
     46 H          19.2948   68.7057   -1.8392 H       1  UNL1        0.2105
@<TRIPOS>BOND
     1    29    30    1
     2    29    28    1
     3    29    36    1
     4    30    31    1
     5    30    41    1
     6    31    32    1
     7    31    34    1
     8    32    33    1
     9    32    35    1
    10    33    44    1
    11    33    36    1
    12    44    45    1
    13    39    40    1
    14    39    41   am
    15    39    42    2
    16    41    43    1
    17    28    25    1
    18    34    37    1
    19    35    38    1
    20    45    46    1
    21    15    16   ar
    22    15    20   ar
    23    15     6    1
    24    16    17   ar
    25    16    21    2
    26    17    18   ar
    27    17    23    1
    28    18    19   ar
    29    18    22    2
    30    19    20   ar
    31     6     7    1
    32     6    11    1
    33     7     8    1
    34     7     9    1
    35     8    13    1
    36     9    10    1
    37     9    12    1
    38    10    11    1
    39    10     5    1
    40    12    14    1
    41     5     4    1
    42     4     1    1
    43     1     2    2
    44     1     3    1
    45     1    24    1
    46    24    25    1
    47    25    26    2
    48    25    27    1
@<TRIPOS>MOLECULE
UD1
 46 48 0 0 0
SMALL
GASTEIGER

@<TRIPOS>ATOM
      1 P          20.6775   73.1467   -2.5226 P.3     1  UNL1        0.2189
      2 O          19.8410   74.1083   -1.7714 O.2     1  UNL1       -0.5170
      3 O          20.0016   71.6865   -2.4631 O.3     1  UNL1       -0.4371
      4 O          22.1456   73.0846   -1.8641 O.3     1  UNL1       -0.3112
      5 C          22.1240   73.9433   -0.7228 C.3     1  UNL1        0.1811
      6 C          22.5406   73.4777    2.8179 C.3     1  UNL1        0.2383
      7 C          21.1057   72.9716    2.5260 C.3     1  UNL1        0.1895
      8 O          20.7383   71.9280    3.4289 O.3     1  UNL1       -0.3779
      9 C          21.2397   72.4297    1.0791 C.3     1  UNL1        0.1713
     10 C          22.4900   73.1414    0.5270 C.3     1  UNL1        0.1764
     11 O          22.9685   74.0271    1.5535 O.3     1  UNL1       -0.3308
     12 O          21.4268   71.0128    1.0907 O.3     1  UNL1       -0.3794
     13 H          19.8391   71.6591    3.1952 H       1  UNL1        0.2106
     14 H          20.6394   70.6305    1.5006 H       1  UNL1        0.2105
     15 N          22.5258   74.5130    3.8520 N.ar    1  UNL1       -0.2551
     16 C          22.5826   74.1609    5.1482 C.ar    1  UNL1        0.3323
     17 N          22.5746   75.0920    6.1204 N.ar    1  UNL1       -0.2743
     18 C          22.4997   76.4012    5.8068 C.ar    1  UNL1        0.2626
     19 C          22.4333   76.7856    4.4464 C.ar    1  UNL1        0.0795
     20 C          22.4484   75.8312    3.4912 C.ar    1  UNL1        0.0869
     21 O          22.6505   72.9842    5.4470 O.2     1  UNL1       -0.2464
     22 O          22.4876   77.2437    6.6851 O.2     1  UNL1       -0.2670
     23 H          22.6210   74.8203    7.0500 H       1  UNL1        0.1734
     24 O          20.7967   73.6219   -4.0552 O.3     1  UNL1       -0.2703
     25 P          21.3843   72.3744   -4.8844 P.3     1  UNL1        0.2208
     26 O          22.0163   71.4158   -3.9513 O.2     1  UNL1       -0.5170
     27 O          22.4822   72.8991   -5.9386 O.3     1  UNL1       -0.4371
     28 O          20.1887   71.6435   -5.6760 O.3     1  UNL1       -0.2865
     29 C          19.2440   72.6563   -6.0269 C.3     1  UNL1        0.2611
     30 C          17.8269   72.1187   -5.8199 C.3     1  UNL1        0.1582
     31 C          17.6317   70.8718   -6.6899 C.3     1  UNL1        0.1625
     32 C          17.9908   71.2233   -8.1376 C.3     1  UNL1        0.1686
     33 C          19.3969   71.8257   -8.1701 C.3     1  UNL1        0.1760
     34 O          16.2691   70.4480   -6.6204 O.3     1  UNL1       -0.3801
     35 O          17.9573   70.0407   -8.9388 O.3     1  UNL1       -0.3794
     36 O          19.4269   73.0222   -7.3929 O.3     1  UNL1       -0.3263
     37 H          16.1916   69.6633   -7.1803 H       1  UNL1        0.2105
     38 H          18.1895   70.3066   -9.8398 H       1  UNL1        0.2105
     39 C          16.7643   72.4621   -3.6549 C.2     1  UNL1        0.2231
     40 C          16.5694   72.1014   -2.2043 C.3     1  UNL1        0.0946
     41 N          17.6369   71.7683   -4.4108 N.am    1  UNL1       -0.2994
     42 O          16.1359   73.3778   -4.1416 O.2     1  UNL1       -0.2751
     43 H          18.1401   71.0356   -4.0214 H       1  UNL1        0.1496
     44 C          19.7780   72.1503   -9.6160 C.3     1  UNL1        0.1693
     45 O          18.5986   72.4565  -10.3626 O.3     1  UNL1       -0.3794
     46 H          18.8824   72.6542  -11.2654 H       1  UNL1        0.2105
@<TRIPOS>BOND
     1    29    30    1
     2    29    28    1
     3    29    36    1
     4    30    31    1
     5    30    41    1
     6    31    32    1
     7    31    34    1
     8    32    33    1
     9    32    35    1
    10    33    44    1
    11    33    36    1
    12    44    45    1
    13    39    40    1
    14    39    41   am
    15    39    42    2
    16    41    43    1
    17    28    25    1
    18    34    37    1
    19    35    38    1
    20    45    46    1
    21    15    16   ar
    22    15    20   ar
    23    15     6    1
    24    16    17   ar
    25    16    21    2
    26    17    18   ar
    27    17    23    1
    28    18    19   ar
    29    18    22    2
    30    19    20   ar
    31     6     7    1
    32     6    11    1
    33     7     8    1
    34     7     9    1
    35     8    13    1
    36     9    10    1
    37     9    12    1
    38    10    11    1
    39    10     5    1
    40    12    14    1
    41     5     4    1
    42     4     1    1
    43     1     2    2
    44     1     3    1
    45     1    24    1
    46    24    25    1
    47    25    26    2
    48    25    27    1
@<TRIPOS>MOLECULE
UD1
 46 48 0 0 0
SMALL
GASTEIGER

@<TRIPOS>ATOM
      1 P          22.1914   70.6447   -0.3896 P.3     1  UNL1        0.2189
      2 O          23.3037   69.8771    0.2123 O.2     1  UNL1       -0.5170
      3 O          21.2596   71.2448    0.7784 O.3     1  UNL1       -0.4371
      4 O          21.3150   69.6727   -1.3277 O.3     1  UNL1       -0.3112
      5 C          21.2627   70.2806   -2.6192 C.3     1  UNL1        0.1811
      6 C          18.5525   70.5743   -4.9634 C.3     1  UNL1        0.2383
      7 C          18.5284   69.0882   -4.5265 C.3     1  UNL1        0.1895
      8 O          17.1995   68.5667   -4.5611 O.3     1  UNL1       -0.3779
      9 C          19.0535   69.1686   -3.0694 C.3     1  UNL1        0.1713
     10 C          19.8040   70.5133   -3.0157 C.3     1  UNL1        0.1764
     11 O          19.7411   71.0933   -4.3298 O.3     1  UNL1       -0.3308
     12 O          17.9645   69.1587   -2.1439 O.3     1  UNL1       -0.3794
     13 H          17.2537   67.6428   -4.2802 H       1  UNL1        0.2106
     14 H          17.5004   68.3200   -2.2676 H       1  UNL1        0.2105
     15 N          18.6528   70.6862   -6.4191 N.ar    1  UNL1       -0.2551
     16 C          17.5389   70.6320   -7.1698 C.ar    1  UNL1        0.3323
     17 N          17.6010   70.7361   -8.5106 N.ar    1  UNL1       -0.2743
     18 C          18.7910   70.8882   -9.1259 C.ar    1  UNL1        0.2626
     19 C          19.9721   70.9408   -8.3481 C.ar    1  UNL1        0.0795
     20 C          19.8806   70.8392   -7.0047 C.ar    1  UNL1        0.0869
     21 O          16.4582   70.4952   -6.6294 O.2     1  UNL1       -0.2464
     22 O          18.8487   70.9776  -10.3384 O.2     1  UNL1       -0.2670
     23 H          16.7869   70.6997   -9.0362 H       1  UNL1        0.1734
     24 O          22.7876   71.8494   -1.2741 O.3     1  UNL1       -0.2703
     25 P          22.8044   73.1537   -0.3319 P.3     1  UNL1        0.2208
     26 O          22.8157   72.7367    1.0875 O.2     1  UNL1       -0.5170
     27 O          21.4921   74.0411   -0.6192 O.3     1  UNL1       -0.4371
     28 O          24.1198   74.0266   -0.6452 O.3     1  UNL1       -0.2865
     29 C          23.6778   75.2320   -1.2720 C.3     1  UNL1        0.2611
     30 C          24.0587   75.2001   -2.7532 C.3     1  UNL1        0.1582
     31 C          25.5793   75.0522   -2.8766 C.3     1  UNL1        0.1625
     32 C          26.2478   76.1597   -2.0552 C.3     1  UNL1        0.1686
     33 C          25.7039   76.1172   -0.6256 C.3     1  UNL1        0.1760
     34 O          25.9622   75.1710   -4.2480 O.3     1  UNL1       -0.3801
     35 O          27.6616   75.9537   -2.0365 O.3     1  UNL1       -0.3794
     36 O          24.2960   76.3499   -0.6383 O.3     1  UNL1       -0.3263
     37 H          26.9237   75.0717   -4.2792 H       1  UNL1        0.2105
     38 H          28.0418   76.6709   -1.5095 H       1  UNL1        0.2105
     39 C          22.8612   74.2099   -4.6293 C.2     1  UNL1        0.2231
     40 C          22.1838   73.0412   -5.2983 C.3     1  UNL1        0.0946
     41 N          23.4009   74.0650   -3.4037 N.am    1  UNL1       -0.2994
     42 O          22.9198   75.2812   -5.1940 O.2     1  UNL1       -0.2751
     43 H          23.3540   73.2077   -2.9515 H       1  UNL1        0.1496
     44 C          26.3893   77.1990    0.2118 C.3     1  UNL1        0.1693
     45 O          25.7067   78.4420    0.0358 O.3     1  UNL1       -0.3794
     46 H          26.1693   79.0946    0.5787 H       1  UNL1        0.2105
@<TRIPOS>BOND
     1    29    30    1
     2    29    28    1
     3    29    36    1
     4    30    31    1
     5    30    41    1
     6    31    32    1
     7    31    34    1
     8    32    33    1
     9    32    35    1
    10    33    44    1
    11    33    36    1
    12    44    45    1
    13    39    40    1
    14    39    41   am
    15    39    42    2
    16    41    43    1
    17    28    25    1
    18    34    37    1
    19    35    38    1
    20    45    46    1
    21    15    16   ar
    22    15    20   ar
    23    15     6    1
    24    16    17   ar
    25    16    21    2
    26    17    18   ar
    27    17    23    1
    28    18    19   ar
    29    18    22    2
    30    19    20   ar
    31     6     7    1
    32     6    11    1
    33     7     8    1
    34     7     9    1
    35     8    13    1
    36     9    10    1
    37     9    12    1
    38    10    11    1
    39    10     5    1
    40    12    14    1
    41     5     4    1
    42     4     1    1
    43     1     2    2
    44     1     3    1
    45     1    24    1
    46    24    25    1
    47    25    26    2
    48    25    27    1
@<TRIPOS>MOLECULE
UD1
 46 48 0 0 0
SMALL
GASTEIGER

@<TRIPOS>ATOM
      1 P          18.6381   74.7141   -2.3216 P.3     1  UNL1        0.2189
      2 O          17.3263   75.1943   -2.8089 O.2     1  UNL1       -0.5170
      3 O          19.8088   75.3205   -3.2458 O.3     1  UNL1       -0.4371
      4 O          18.6797   73.1059   -2.3910 O.3     1  UNL1       -0.3112
      5 C          17.3254   72.6601   -2.4771 C.3     1  UNL1        0.1811
      6 C          17.8886   70.3120   -5.1410 C.3     1  UNL1        0.2383
      7 C          19.1596   70.2126   -4.2607 C.3     1  UNL1        0.1895
      8 O          19.7134   68.8972   -4.3092 O.3     1  UNL1       -0.3779
      9 C          18.6026   70.5267   -2.8479 C.3     1  UNL1        0.1713
     10 C          17.2836   71.2744   -3.1232 C.3     1  UNL1        0.1764
     11 O          17.1526   71.4036   -4.5492 O.3     1  UNL1       -0.3308
     12 O          18.3584   69.3176   -2.1260 O.3     1  UNL1       -0.3794
     13 H          20.4980   68.9025   -3.7437 H       1  UNL1        0.2106
     14 H          19.2095   68.8680   -2.0384 H       1  UNL1        0.2105
     15 N          18.2402   70.6185   -6.5281 N.ar    1  UNL1       -0.2551
     16 C          17.3156   70.4850   -7.4948 C.ar    1  UNL1        0.3323
     17 N          17.6098   70.7636   -8.7786 N.ar    1  UNL1       -0.2743
     18 C          18.8482   71.1750   -9.1180 C.ar    1  UNL1        0.2626
     19 C          19.8329   71.3141   -8.1111 C.ar    1  UNL1        0.0795
     20 C          19.5092   71.0330   -6.8306 C.ar    1  UNL1        0.0869
     21 O          16.1942   70.1150   -7.2045 O.2     1  UNL1       -0.2464
     22 O          19.1166   71.4226  -10.2790 O.2     1  UNL1       -0.2670
     23 H          16.9292   70.6664   -9.4623 H       1  UNL1        0.1734
     24 O          18.8528   75.1911   -0.8000 O.3     1  UNL1       -0.2703
     25 P          20.4100   74.9713   -0.4593 P.3     1  UNL1        0.2208
     26 O          20.7045   75.5254    0.8806 O.2     1  UNL1       -0.5170
     27 O          21.3123   75.7233   -1.5604 O.3     1  UNL1       -0.4371
     28 O          20.7472   73.3976   -0.4751 O.3     1  UNL1       -0.2865
     29 C          22.1553   73.2776   -0.6849 C.3     1  UNL1        0.2611
     30 C          22.4131   72.3054   -1.8374 C.3     1  UNL1        0.1582
     31 C          21.7996   70.9439   -1.4915 C.3     1  UNL1        0.1625
     32 C          22.3372   70.4963   -0.1281 C.3     1  UNL1        0.1686
     33 C          22.0822   71.6039    0.8962 C.3     1  UNL1        0.1760
     34 O          22.1614   69.9881   -2.4899 O.3     1  UNL1       -0.3801
     35 O          21.6678   69.3019    0.2807 O.3     1  UNL1       -0.3794
     36 O          22.7719   72.7905    0.5050 O.3     1  UNL1       -0.3263
     37 H          21.7551   69.1488   -2.2334 H       1  UNL1        0.2105
     38 H          22.0351   69.0562    1.1417 H       1  UNL1        0.2105
     39 C          22.5362   72.9576   -4.1813 C.2     1  UNL1        0.2231
     40 C          21.9040   73.4913   -5.4413 C.3     1  UNL1        0.0946
     41 N          21.7993   72.8233   -3.0619 N.am    1  UNL1       -0.2994
     42 O          23.7090   72.6498   -4.1748 O.2     1  UNL1       -0.2751
     43 H          20.8608   73.0698   -3.0667 H       1  UNL1        0.1496
     44 C          22.5864   71.1534    2.2688 C.3     1  UNL1        0.1693
     45 O          23.4786   70.0485    2.1099 O.3     1  UNL1       -0.3794
     46 H          23.7721   69.7961    2.9958 H       1  UNL1        0.2105
@<TRIPOS>BOND
     1    29    30    1
     2    29    28    1
     3    29    36    1
     4    30    31    1
     5    30    41    1
     6    31    32    1
     7    31    34    1
     8    32    33    1
     9    32    35    1
    10    33    44    1
    11    33    36    1
    12    44    45    1
    13    39    40    1
    14    39    41   am
    15    39    42    2
    16    41    43    1
    17    28    25    1
    18    34    37    1
    19    35    38    1
    20    45    46    1
    21    15    16   ar
    22    15    20   ar
    23    15     6    1
    24    16    17   ar
    25    16    21    2
    26    17    18   ar
    27    17    23    1
    28    18    19   ar
    29    18    22    2
    30    19    20   ar
    31     6     7    1
    32     6    11    1
    33     7     8    1
    34     7     9    1
    35     8    13    1
    36     9    10    1
    37     9    12    1
    38    10    11    1
    39    10     5    1
    40    12    14    1
    41     5     4    1
    42     4     1    1
    43     1     2    2
    44     1     3    1
    45     1    24    1
    46    24    25    1
    47    25    26    2
    48    25    27    1
