@<TRIPOS>MOLECULE
*****
 43 45 0 0 0
SMALL
GASTEIGER

@<TRIPOS>ATOM
      1 P          23.0492   71.6409   -2.5684 P.3     1  UNL1        0.2189
      2 O          23.3294   73.1855   -2.1774 O.co2   1  UNL1       -0.4371
      3 O          24.2127   70.9223   -3.1858 O.2     1  UNL1       -0.5170
      4 O          21.7057   71.7055   -3.4677 O.3     1  UNL1       -0.3112
      5 C          20.9042   70.5415   -3.5703 C.3     1  UNL1        0.1811
      6 O          18.9251   71.5408   -4.4969 O.3     1  UNL1       -0.3308
      7 O          17.4248   70.1585   -2.2993 O.3     1  UNL1       -0.3794
      8 O          16.9566   68.5432   -4.4460 O.3     1  UNL1       -0.3779
      9 C          18.5595   69.7093   -3.0381 C.3     1  UNL1        0.1713
     10 C          18.1483   69.3025   -4.4377 C.3     1  UNL1        0.1895
     11 C          19.4519   70.9148   -3.3065 C.3     1  UNL1        0.1764
     12 C          17.9884   70.6489   -5.1231 C.3     1  UNL1        0.2383
     13 H          16.8401   69.4059   -2.1156 H       1  UNL1        0.2105
     14 H          17.1096   67.6962   -3.9987 H       1  UNL1        0.2106
     15 O          16.1134   69.9028   -7.0993 O.2     1  UNL1       -0.2464
     16 O          19.1941   70.4386  -10.4851 O.2     1  UNL1       -0.2670
     17 N          18.2735   70.5853   -6.5288 N.ar    1  UNL1       -0.2551
     18 N          17.6488   70.1704   -8.7836 N.ar    1  UNL1       -0.2743
     19 C          17.2615   70.1979   -7.4378 C.ar    1  UNL1        0.3323
     20 C          19.5446   70.9052   -6.9933 C.ar    1  UNL1        0.0869
     21 C          19.8983   70.8727   -8.2798 C.ar    1  UNL1        0.0795
     22 C          18.8998   70.4783   -9.2944 C.ar    1  UNL1        0.2626
     23 H          16.9604   69.9030   -9.4350 H       1  UNL1        0.1734
     24 O          22.5255   71.0033   -1.1783 O.3     1  UNL1       -0.2703
     25 P          21.5766   71.6144   -0.0211 P.3     1  UNL1        0.2208
     26 O          21.0708   70.3005    0.7761 O.co2   1  UNL1       -0.4371
     27 O          20.4712   72.4926   -0.5317 O.2     1  UNL1       -0.5170
     28 O          22.5934   72.3435    0.9984 O.3     1  UNL1       -0.2858
     29 O          24.3520   71.8071    2.4938 O.3     1  UNL1       -0.3258
     30 O          21.9230   73.9345    5.0677 O.3     1  UNL1       -0.3794
     31 O          24.3741   75.1068    4.1371 O.3     1  UNL1       -0.3794
     32 O          20.7455   72.1648    3.1028 O.3     1  UNL1       -0.3775
     33 C          22.5304   73.6180    3.8122 C.3     1  UNL1        0.1715
     34 C          24.0479   73.7296    3.9720 C.3     1  UNL1        0.1694
     35 C          22.1350   72.1984    3.4102 C.3     1  UNL1        0.1967
     36 C          24.7774   73.1502    2.7525 C.3     1  UNL1        0.1761
     37 C          22.9540   71.7002    2.2180 C.3     1  UNL1        0.2704
     38 H          22.1697   74.8348    5.3285 H       1  UNL1        0.2105
     39 H          23.9066   75.4606    4.9101 H       1  UNL1        0.2105
     40 H          20.2380   72.4821    3.8654 H       1  UNL1        0.2106
     41 O          26.7831   74.4342    2.9460 O.3     1  UNL1       -0.3794
     42 C          26.2900   73.1071    2.9581 C.3     1  UNL1        0.1693
     43 H          27.7447   74.4223    3.0760 H       1  UNL1        0.2105
@<TRIPOS>UNITY_ATOM_ATTR
2 1
charge -1
26 1
charge -1
@<TRIPOS>BOND
     1    25    28    1
     2    25    24    1
     3    25    26    1
     4    25    27    2
     5     1     4    1
     6     1    24    1
     7     1     2    1
     8     1     3    2
     9     6    11    1
    10     6    12    1
    11    29    36    1
    12    29    37    1
    13     7     9    1
    14     7    13    1
    15     8    10    1
    16     8    14    1
    17    28    37    1
    18     4     5    1
    19    30    33    1
    20    30    38    1
    21    31    34    1
    22    31    39    1
    23    32    35    1
    24    32    40    1
    25    41    42    1
    26    41    43    1
    27    15    19    2
    28    16    22    2
    29    17    12    1
    30    17    19   ar
    31    17    20   ar
    32    18    19   ar
    33    18    22   ar
    34    18    23    1
    35     9    10    1
    36     9    11    1
    37    10    12    1
    38    11     5    1
    39    33    34    1
    40    33    35    1
    41    34    36    1
    42    35    37    1
    43    36    42    1
    44    20    21   ar
    45    21    22   ar
@<TRIPOS>MOLECULE
*****
 43 45 0 0 0
SMALL
GASTEIGER

@<TRIPOS>ATOM
      1 P          22.8682   71.4782   -2.4646 P.3     1  UNL1        0.2189
      2 O          22.7799   73.0849   -2.2966 O.co2   1  UNL1       -0.4371
      3 O          24.0720   70.9844   -3.2118 O.2     1  UNL1       -0.5170
      4 O          21.4345   71.0744   -3.0965 O.3     1  UNL1       -0.3112
      5 C          20.8355   71.9549   -4.0312 C.3     1  UNL1        0.1811
      6 O          18.6703   72.3128   -5.0099 O.3     1  UNL1       -0.3308
      7 O          17.5529   70.9793   -2.5678 O.3     1  UNL1       -0.3794
      8 O          17.4629   68.9864   -4.4270 O.3     1  UNL1       -0.3779
      9 C          18.7563   70.6958   -3.2797 C.3     1  UNL1        0.1713
     10 C          18.4425   69.9927   -4.5838 C.3     1  UNL1        0.1895
     11 C          19.3380   72.0183   -3.7634 C.3     1  UNL1        0.1764
     12 C          17.9654   71.1424   -5.4548 C.3     1  UNL1        0.2383
     13 H          17.1631   70.1497   -2.2487 H       1  UNL1        0.2105
     14 H          17.8140   68.2778   -3.8655 H       1  UNL1        0.2106
     15 O          16.0206   70.4849   -7.3947 O.2     1  UNL1       -0.2464
     16 O          19.1629   70.3454  -10.7633 O.2     1  UNL1       -0.2670
     17 N          18.2475   70.9290   -6.8463 N.ar    1  UNL1       -0.2551
     18 N          17.5868   70.4162   -9.0705 N.ar    1  UNL1       -0.2743
     19 C          17.1989   70.6020   -7.7374 C.ar    1  UNL1        0.3323
     20 C          19.5517   71.0447   -7.3147 C.ar    1  UNL1        0.0869
     21 C          19.9052   70.8631   -8.5888 C.ar    1  UNL1        0.0795
     22 C          18.8697   70.5188   -9.5844 C.ar    1  UNL1        0.2626
     23 H          16.8731   70.1873   -9.7093 H       1  UNL1        0.1734
     24 O          22.7568   70.9469   -0.9420 O.3     1  UNL1       -0.2703
     25 P          21.8613   71.4647    0.3001 P.3     1  UNL1        0.2208
     26 O          21.5876   70.1145    1.1485 O.co2   1  UNL1       -0.4371
     27 O          20.6191   72.2051   -0.1032 O.2     1  UNL1       -0.5170
     28 O          22.8828   72.3191    1.2120 O.3     1  UNL1       -0.2858
     29 O          22.2141   73.9247    2.8218 O.3     1  UNL1       -0.3258
     30 O          25.9169   75.4705    1.8468 O.3     1  UNL1       -0.3794
     31 O          25.5398   74.1901    4.3897 O.3     1  UNL1       -0.3794
     32 O          24.2467   74.3136   -0.2151 O.3     1  UNL1       -0.3775
     33 C          24.9579   74.4361    2.0828 C.3     1  UNL1        0.1715
     34 C          24.4671   74.5576    3.5268 C.3     1  UNL1        0.1694
     35 C          23.7961   74.5999    1.1046 C.3     1  UNL1        0.1967
     36 C          23.2490   73.6579    3.7755 C.3     1  UNL1        0.1761
     37 C          22.6179   73.6954    1.4704 C.3     1  UNL1        0.2704
     38 H          26.6574   75.3720    2.4644 H       1  UNL1        0.2105
     39 H          26.3027   74.7655    4.2222 H       1  UNL1        0.2105
     40 H          24.9924   74.8928   -0.4348 H       1  UNL1        0.2106
     41 O          21.8100   75.0212    5.1095 O.3     1  UNL1       -0.3794
     42 C          22.6469   73.8804    5.1611 C.3     1  UNL1        0.1693
     43 H          21.4196   75.1749    5.9845 H       1  UNL1        0.2105
@<TRIPOS>UNITY_ATOM_ATTR
2 1
charge -1
26 1
charge -1
@<TRIPOS>BOND
     1    25    28    1
     2    25    24    1
     3    25    26    1
     4    25    27    2
     5     1     4    1
     6     1    24    1
     7     1     2    1
     8     1     3    2
     9     6    11    1
    10     6    12    1
    11    29    36    1
    12    29    37    1
    13     7     9    1
    14     7    13    1
    15     8    10    1
    16     8    14    1
    17    28    37    1
    18     4     5    1
    19    30    33    1
    20    30    38    1
    21    31    34    1
    22    31    39    1
    23    32    35    1
    24    32    40    1
    25    41    42    1
    26    41    43    1
    27    15    19    2
    28    16    22    2
    29    17    12    1
    30    17    19   ar
    31    17    20   ar
    32    18    19   ar
    33    18    22   ar
    34    18    23    1
    35     9    10    1
    36     9    11    1
    37    10    12    1
    38    11     5    1
    39    33    34    1
    40    33    35    1
    41    34    36    1
    42    35    37    1
    43    36    42    1
    44    20    21   ar
    45    21    22   ar
@<TRIPOS>MOLECULE
*****
 43 45 0 0 0
SMALL
GASTEIGER

@<TRIPOS>ATOM
      1 P          23.0639   71.5800   -2.4778 P.3     1  UNL1        0.2189
      2 O          23.0401   73.1367   -2.0379 O.co2   1  UNL1       -0.4371
      3 O          24.3732   71.0972   -3.0291 O.2     1  UNL1       -0.5170
      4 O          21.7899   71.4358   -3.4648 O.3     1  UNL1       -0.3112
      5 C          21.5454   72.4646   -4.4080 C.3     1  UNL1        0.1811
      6 O          20.5531   70.6574   -5.6422 O.3     1  UNL1       -0.3308
      7 O          20.9751   72.3426   -8.0861 O.3     1  UNL1       -0.3794
      8 O          18.3261   72.7159   -7.5569 O.3     1  UNL1       -0.3779
      9 C          20.6239   72.7442   -6.7629 C.3     1  UNL1        0.1713
     10 C          19.1778   72.3986   -6.4749 C.3     1  UNL1        0.1895
     11 C          21.3672   71.8418   -5.7859 C.3     1  UNL1        0.1764
     12 C          19.2572   70.9044   -6.2120 C.3     1  UNL1        0.2383
     13 H          20.5127   72.9050   -8.7279 H       1  UNL1        0.2105
     14 H          18.3091   73.6772   -7.6841 H       1  UNL1        0.2106
     15 O          16.6864   70.0135   -6.9702 O.2     1  UNL1       -0.2464
     16 O          15.4752   69.2084   -2.5969 O.2     1  UNL1       -0.2670
     17 N          18.2502   70.4559   -5.2921 N.ar    1  UNL1       -0.2551
     18 N          16.0855   69.6132   -4.7920 N.ar    1  UNL1       -0.2743
     19 C          16.9912   70.0299   -5.7758 C.ar    1  UNL1        0.3323
     20 C          18.5156   70.4412   -3.9271 C.ar    1  UNL1        0.0869
     21 C          17.6405   70.0421   -3.0018 C.ar    1  UNL1        0.0795
     22 C          16.3019   69.5815   -3.4235 C.ar    1  UNL1        0.2626
     23 H          15.2017   69.3124   -5.1055 H       1  UNL1        0.1734
     24 O          22.5750   70.8166   -1.1395 O.3     1  UNL1       -0.2703
     25 P          21.7576   71.3508    0.1487 P.3     1  UNL1        0.2208
     26 O          21.5050   70.0058    1.0117 O.co2   1  UNL1       -0.4371
     27 O          20.5095   72.1143   -0.1876 O.2     1  UNL1       -0.5170
     28 O          22.8426   72.1858    1.0035 O.3     1  UNL1       -0.2858
     29 O          24.5064   72.0681    2.6871 O.3     1  UNL1       -0.3258
     30 O          21.7077   74.3554    4.6838 O.3     1  UNL1       -0.3794
     31 O          24.1271   75.5808    3.7387 O.3     1  UNL1       -0.3794
     32 O          20.8444   72.1851    2.9739 O.3     1  UNL1       -0.3775
     33 C          22.4419   73.8944    3.5463 C.3     1  UNL1        0.1715
     34 C          23.9268   74.1710    3.7896 C.3     1  UNL1        0.1694
     35 C          22.1961   72.3975    3.3667 C.3     1  UNL1        0.1967
     36 C          24.8001   73.4690    2.7410 C.3     1  UNL1        0.1761
     37 C          23.1495   71.7881    2.3373 C.3     1  UNL1        0.2704
     38 H          21.8591   75.3054    4.8031 H       1  UNL1        0.2105
     39 H          23.5696   76.0121    4.4053 H       1  UNL1        0.2105
     40 H          20.2509   72.5751    3.6338 H       1  UNL1        0.2106
     41 O          26.4292   73.9915    4.4090 O.3     1  UNL1       -0.3794
     42 C          26.2887   73.6009    3.0555 C.3     1  UNL1        0.1693
     43 H          27.3716   74.0791    4.6234 H       1  UNL1        0.2105
@<TRIPOS>UNITY_ATOM_ATTR
2 1
charge -1
26 1
charge -1
@<TRIPOS>BOND
     1    25    28    1
     2    25    24    1
     3    25    26    1
     4    25    27    2
     5     1     4    1
     6     1    24    1
     7     1     2    1
     8     1     3    2
     9     6    11    1
    10     6    12    1
    11    29    36    1
    12    29    37    1
    13     7     9    1
    14     7    13    1
    15     8    10    1
    16     8    14    1
    17    28    37    1
    18     4     5    1
    19    30    33    1
    20    30    38    1
    21    31    34    1
    22    31    39    1
    23    32    35    1
    24    32    40    1
    25    41    42    1
    26    41    43    1
    27    15    19    2
    28    16    22    2
    29    17    12    1
    30    17    19   ar
    31    17    20   ar
    32    18    19   ar
    33    18    22   ar
    34    18    23    1
    35     9    10    1
    36     9    11    1
    37    10    12    1
    38    11     5    1
    39    33    34    1
    40    33    35    1
    41    34    36    1
    42    35    37    1
    43    36    42    1
    44    20    21   ar
    45    21    22   ar
@<TRIPOS>MOLECULE
*****
 43 45 0 0 0
SMALL
GASTEIGER

@<TRIPOS>ATOM
      1 P          20.6027   71.2794   -1.5390 P.3     1  UNL1        0.2189
      2 O          21.2666   70.5310   -0.2675 O.co2   1  UNL1       -0.4371
      3 O          20.1003   72.6667   -1.2664 O.2     1  UNL1       -0.5170
      4 O          19.4993   70.2256   -2.0773 O.3     1  UNL1       -0.3112
      5 C          19.1613   70.2443   -3.4533 C.3     1  UNL1        0.1811
      6 O          17.5380   71.3480   -4.8391 O.3     1  UNL1       -0.3308
      7 O          15.4633   69.8360   -3.2898 O.3     1  UNL1       -0.3794
      8 O          15.6506   68.3938   -5.5967 O.3     1  UNL1       -0.3779
      9 C          16.7663   69.4208   -3.6962 C.3     1  UNL1        0.1713
     10 C          16.7851   69.1271   -5.1817 C.3     1  UNL1        0.1895
     11 C          17.6943   70.6252   -3.5983 C.3     1  UNL1        0.1764
     12 C          16.8290   70.5235   -5.7785 C.3     1  UNL1        0.2383
     13 H          14.8529   69.0833   -3.3436 H       1  UNL1        0.2105
     14 H          15.6684   67.5132   -5.1905 H       1  UNL1        0.2106
     15 O          15.5427   70.5494   -8.2930 O.2     1  UNL1       -0.2464
     16 O          19.5589   70.6579  -10.5512 O.2     1  UNL1       -0.2670
     17 N          17.5141   70.5588   -7.0398 N.ar    1  UNL1       -0.2551
     18 N          17.5435   70.6036   -9.4154 N.ar    1  UNL1       -0.2743
     19 C          16.7744   70.5681   -8.2452 C.ar    1  UNL1        0.3323
     20 C          18.9041   70.5841   -7.0729 C.ar    1  UNL1        0.0869
     21 C          19.6227   70.6164   -8.1971 C.ar    1  UNL1        0.0795
     22 C          18.9266   70.6283   -9.5000 C.ar    1  UNL1        0.2626
     23 H          17.0497   70.6103  -10.2674 H       1  UNL1        0.1734
     24 O          21.7648   71.1927   -2.6592 O.3     1  UNL1       -0.2703
     25 P          23.1698   71.9806   -2.7945 P.3     1  UNL1        0.2208
     26 O          24.2431   70.7900   -3.0136 O.co2   1  UNL1       -0.4371
     27 O          23.4795   72.8889   -1.6400 O.2     1  UNL1       -0.5170
     28 O          23.0860   72.7224   -4.2254 O.3     1  UNL1       -0.2858
     29 O          20.9076   73.6448   -4.3675 O.3     1  UNL1       -0.3258
     30 O          22.3474   74.7802   -8.0673 O.3     1  UNL1       -0.3794
     31 O          21.9994   76.7573   -6.0135 O.3     1  UNL1       -0.3794
     32 O          23.0431   72.1891   -6.9802 O.3     1  UNL1       -0.3775
     33 C          22.4299   74.4973   -6.6678 C.3     1  UNL1        0.1715
     34 C          21.4721   75.4361   -5.9315 C.3     1  UNL1        0.1694
     35 C          22.0426   73.0390   -6.4297 C.3     1  UNL1        0.1967
     36 C          21.3048   75.0176   -4.4646 C.3     1  UNL1        0.1761
     37 C          21.8537   72.7406   -4.9413 C.3     1  UNL1        0.2704
     38 H          22.5926   75.7046   -8.2254 H       1  UNL1        0.2105
     39 H          22.1006   77.0091   -6.9449 H       1  UNL1        0.2105
     40 H          23.1529   72.3876   -7.9228 H       1  UNL1        0.2106
     41 O          20.5076   77.2150   -3.9700 O.3     1  UNL1       -0.3794
     42 C          20.2350   75.8428   -3.7528 C.3     1  UNL1        0.1693
     43 H          19.8345   77.7524   -3.5230 H       1  UNL1        0.2105
@<TRIPOS>UNITY_ATOM_ATTR
2 1
charge -1
26 1
charge -1
@<TRIPOS>BOND
     1    25    28    1
     2    25    24    1
     3    25    26    1
     4    25    27    2
     5     1     4    1
     6     1    24    1
     7     1     2    1
     8     1     3    2
     9     6    11    1
    10     6    12    1
    11    29    36    1
    12    29    37    1
    13     7     9    1
    14     7    13    1
    15     8    10    1
    16     8    14    1
    17    28    37    1
    18     4     5    1
    19    30    33    1
    20    30    38    1
    21    31    34    1
    22    31    39    1
    23    32    35    1
    24    32    40    1
    25    41    42    1
    26    41    43    1
    27    15    19    2
    28    16    22    2
    29    17    12    1
    30    17    19   ar
    31    17    20   ar
    32    18    19   ar
    33    18    22   ar
    34    18    23    1
    35     9    10    1
    36     9    11    1
    37    10    12    1
    38    11     5    1
    39    33    34    1
    40    33    35    1
    41    34    36    1
    42    35    37    1
    43    36    42    1
    44    20    21   ar
    45    21    22   ar
@<TRIPOS>MOLECULE
*****
 43 45 0 0 0
SMALL
GASTEIGER

@<TRIPOS>ATOM
      1 P          20.7542   71.2076   -2.0341 P.3     1  UNL1        0.2189
      2 O          22.1935   70.7533   -2.6170 O.co2   1  UNL1       -0.4371
      3 O          20.3317   70.5100   -0.7746 O.2     1  UNL1       -0.5170
      4 O          19.7551   71.0450   -3.2964 O.3     1  UNL1       -0.3112
      5 C          19.0433   72.1846   -3.7463 C.3     1  UNL1        0.1811
      6 O          17.1480   72.0113   -5.2132 O.3     1  UNL1       -0.3308
      7 O          15.8941   70.3093   -3.0866 O.3     1  UNL1       -0.3794
      8 O          16.7710   68.4595   -4.8882 O.3     1  UNL1       -0.3779
      9 C          17.2602   70.3878   -3.4905 C.3     1  UNL1        0.1713
     10 C          17.4554   69.6940   -4.8225 C.3     1  UNL1        0.1895
     11 C          17.5634   71.8394   -3.8405 C.3     1  UNL1        0.1764
     12 C          16.9034   70.7210   -5.7965 C.3     1  UNL1        0.2383
     13 H          15.6770   69.3915   -2.8577 H       1  UNL1        0.2105
     14 H          17.1589   67.8403   -4.2503 H       1  UNL1        0.2106
     15 O          15.5334   70.6511   -8.2655 O.2     1  UNL1       -0.2464
     16 O          19.4712   70.4855  -10.6546 O.2     1  UNL1       -0.2670
     17 N          17.5457   70.6599   -7.0792 N.ar    1  UNL1       -0.2551
     18 N          17.4952   70.5689   -9.4531 N.ar    1  UNL1       -0.2743
     19 C          16.7659   70.6278   -8.2587 C.ar    1  UNL1        0.3323
     20 C          18.9338   70.6327   -7.1585 C.ar    1  UNL1        0.0869
     21 C          19.6141   70.5752   -8.3053 C.ar    1  UNL1        0.0795
     22 C          18.8746   70.5386   -9.5835 C.ar    1  UNL1        0.2626
     23 H          16.9730   70.5453  -10.2877 H       1  UNL1        0.1734
     24 O          20.9075   72.8108   -1.8962 O.3     1  UNL1       -0.2703
     25 P          20.5664   73.8083   -0.6709 P.3     1  UNL1        0.2208
     26 O          19.3357   73.0706    0.0766 O.co2   1  UNL1       -0.4371
     27 O          20.2794   75.2213   -1.0892 O.2     1  UNL1       -0.5170
     28 O          21.8123   73.6510    0.3430 O.3     1  UNL1       -0.2858
     29 O          22.5145   71.6677    1.4340 O.3     1  UNL1       -0.3258
     30 O          23.6331   74.4265    4.2956 O.3     1  UNL1       -0.3794
     31 O          25.6487   73.1196    2.7216 O.3     1  UNL1       -0.3794
     32 O          21.1668   74.7911    2.8246 O.3     1  UNL1       -0.3775
     33 C          23.4161   73.9416    2.9678 C.3     1  UNL1        0.1715
     34 C          24.2873   72.7009    2.7619 C.3     1  UNL1        0.1694
     35 C          21.9381   73.5949    2.7983 C.3     1  UNL1        0.1967
     36 C          23.9141   71.9710    1.4646 C.3     1  UNL1        0.1761
     37 C          21.6831   72.8281    1.4995 C.3     1  UNL1        0.2704
     38 H          24.5696   74.6489    4.4097 H       1  UNL1        0.2105
     39 H          25.8713   73.5794    3.5463 H       1  UNL1        0.2105
     40 H          21.3368   75.2672    3.6518 H       1  UNL1        0.2106
     41 O          24.9486   70.1480    2.6115 O.3     1  UNL1       -0.3794
     42 C          24.6607   70.6469    1.3182 C.3     1  UNL1        0.1693
     43 H          25.4235   69.3053    2.5340 H       1  UNL1        0.2105
@<TRIPOS>UNITY_ATOM_ATTR
2 1
charge -1
26 1
charge -1
@<TRIPOS>BOND
     1    25    28    1
     2    25    24    1
     3    25    26    1
     4    25    27    2
     5     1     4    1
     6     1    24    1
     7     1     2    1
     8     1     3    2
     9     6    11    1
    10     6    12    1
    11    29    36    1
    12    29    37    1
    13     7     9    1
    14     7    13    1
    15     8    10    1
    16     8    14    1
    17    28    37    1
    18     4     5    1
    19    30    33    1
    20    30    38    1
    21    31    34    1
    22    31    39    1
    23    32    35    1
    24    32    40    1
    25    41    42    1
    26    41    43    1
    27    15    19    2
    28    16    22    2
    29    17    12    1
    30    17    19   ar
    31    17    20   ar
    32    18    19   ar
    33    18    22   ar
    34    18    23    1
    35     9    10    1
    36     9    11    1
    37    10    12    1
    38    11     5    1
    39    33    34    1
    40    33    35    1
    41    34    36    1
    42    35    37    1
    43    36    42    1
    44    20    21   ar
    45    21    22   ar
@<TRIPOS>MOLECULE
*****
 43 45 0 0 0
SMALL
GASTEIGER

@<TRIPOS>ATOM
      1 P          22.3903   71.6340   -2.8439 P.3     1  UNL1        0.2189
      2 O          22.1604   73.1838   -2.4404 O.co2   1  UNL1       -0.4371
      3 O          23.7851   71.2925   -3.2788 O.2     1  UNL1       -0.5170
      4 O          21.2244   71.3374   -3.9259 O.3     1  UNL1       -0.3112
      5 C          20.3150   70.2818   -3.6677 C.3     1  UNL1        0.1811
      6 O          18.5895   71.5511   -4.7564 O.3     1  UNL1       -0.3308
      7 O          16.7159   70.3992   -2.7183 O.3     1  UNL1       -0.3794
      8 O          16.2196   68.8640   -4.9168 O.3     1  UNL1       -0.3779
      9 C          17.8377   69.7923   -3.3575 C.3     1  UNL1        0.1713
     10 C          17.5012   69.4461   -4.7929 C.3     1  UNL1        0.1895
     11 C          18.9124   70.8582   -3.5309 C.3     1  UNL1        0.1764
     12 C          17.5963   70.8007   -5.4743 C.3     1  UNL1        0.2383
     13 H          16.0164   69.7376   -2.5965 H       1  UNL1        0.2105
     14 H          16.2099   68.0045   -4.4674 H       1  UNL1        0.2106
     15 O          15.8356   70.2283   -7.6074 O.2     1  UNL1       -0.2464
     16 O          19.2390   70.4190  -10.7093 O.2     1  UNL1       -0.2670
     17 N          17.9954   70.6952   -6.8494 N.ar    1  UNL1       -0.2551
     18 N          17.5316   70.3239   -9.1502 N.ar    1  UNL1       -0.2743
     19 C          17.0328   70.4031   -7.8437 C.ar    1  UNL1        0.3323
     20 C          19.3281   70.8811   -7.2005 C.ar    1  UNL1        0.0869
     21 C          19.7878   70.8010   -8.4509 C.ar    1  UNL1        0.0795
     22 C          18.8472   70.4994   -9.5492 C.ar    1  UNL1        0.2626
     23 H          16.8793   70.1210   -9.8595 H       1  UNL1        0.1734
     24 O          21.8804   70.8376   -1.5329 O.3     1  UNL1       -0.2703
     25 P          22.1873   71.0707    0.0369 P.3     1  UNL1        0.2208
     26 O          23.7798   71.3548    0.0654 O.co2   1  UNL1       -0.4371
     27 O          21.7433   69.9443    0.9246 O.2     1  UNL1       -0.5170
     28 O          21.5127   72.4968    0.3777 O.3     1  UNL1       -0.2858
     29 O          21.0304   72.2226    2.6818 O.3     1  UNL1       -0.3258
     30 O          20.0620   76.2161    2.2757 O.3     1  UNL1       -0.3794
     31 O          22.4534   75.4729    3.6816 O.3     1  UNL1       -0.3794
     32 O          19.4183   74.3515    0.1571 O.3     1  UNL1       -0.3775
     33 C          20.8024   75.0215    2.0110 C.3     1  UNL1        0.1715
     34 C          21.4318   74.5469    3.3222 C.3     1  UNL1        0.1694
     35 C          19.8552   73.9602    1.4542 C.3     1  UNL1        0.1967
     36 C          22.0169   73.1356    3.1769 C.3     1  UNL1        0.1761
     37 C          20.5202   72.5838    1.3969 C.3     1  UNL1        0.2704
     38 H          20.6577   76.8942    2.6290 H       1  UNL1        0.2105
     39 H          22.0709   76.3601    3.7697 H       1  UNL1        0.2105
     40 H          18.9989   75.2241    0.2069 H       1  UNL1        0.2106
     41 O          21.7633   73.1851    5.5522 O.3     1  UNL1       -0.3794
     42 C          22.5088   72.5802    4.5117 C.3     1  UNL1        0.1693
     43 H          22.0653   72.8409    6.4078 H       1  UNL1        0.2105
@<TRIPOS>UNITY_ATOM_ATTR
2 1
charge -1
26 1
charge -1
@<TRIPOS>BOND
     1    25    28    1
     2    25    24    1
     3    25    26    1
     4    25    27    2
     5     1     4    1
     6     1    24    1
     7     1     2    1
     8     1     3    2
     9     6    11    1
    10     6    12    1
    11    29    36    1
    12    29    37    1
    13     7     9    1
    14     7    13    1
    15     8    10    1
    16     8    14    1
    17    28    37    1
    18     4     5    1
    19    30    33    1
    20    30    38    1
    21    31    34    1
    22    31    39    1
    23    32    35    1
    24    32    40    1
    25    41    42    1
    26    41    43    1
    27    15    19    2
    28    16    22    2
    29    17    12    1
    30    17    19   ar
    31    17    20   ar
    32    18    19   ar
    33    18    22   ar
    34    18    23    1
    35     9    10    1
    36     9    11    1
    37    10    12    1
    38    11     5    1
    39    33    34    1
    40    33    35    1
    41    34    36    1
    42    35    37    1
    43    36    42    1
    44    20    21   ar
    45    21    22   ar
@<TRIPOS>MOLECULE
*****
 43 45 0 0 0
SMALL
GASTEIGER

@<TRIPOS>ATOM
      1 P          19.9481   72.0740   -1.3124 P.3     1  UNL1        0.2189
      2 O          19.7674   70.4664   -1.2987 O.co2   1  UNL1       -0.4371
      3 O          18.8169   72.8442   -0.6969 O.2     1  UNL1       -0.5170
      4 O          20.2701   72.4155   -2.8608 O.3     1  UNL1       -0.3112
      5 C          19.6822   71.6097   -3.8672 C.3     1  UNL1        0.1811
      6 O          17.9775   72.3853   -5.3727 O.3     1  UNL1       -0.3308
      7 O          16.0006   71.3525   -3.3687 O.3     1  UNL1       -0.3794
      8 O          16.0126   69.3871   -5.2591 O.3     1  UNL1       -0.3779
      9 C          17.2680   70.8162   -3.7448 C.3     1  UNL1        0.1713
     10 C          17.1805   70.1688   -5.1111 C.3     1  UNL1        0.1895
     11 C          18.2125   71.9828   -4.0055 C.3     1  UNL1        0.1764
     12 C          17.1967   71.3759   -6.0334 C.3     1  UNL1        0.2383
     13 H          15.3804   70.6260   -3.1967 H       1  UNL1        0.2105
     14 H          16.0497   68.6319   -4.6516 H       1  UNL1        0.2106
     15 O          15.7680   70.4643   -8.2929 O.2     1  UNL1       -0.2464
     16 O          19.5881   70.2884  -10.8654 O.2     1  UNL1       -0.2670
     17 N          17.7928   71.0844   -7.3066 N.ar    1  UNL1       -0.2551
     18 N          17.6712   70.3777   -9.5720 N.ar    1  UNL1       -0.2743
     19 C          16.9865   70.6311   -8.3766 C.ar    1  UNL1        0.3323
     20 C          19.1621   71.2489   -7.4847 C.ar    1  UNL1        0.0869
     21 C          19.8000   71.0016   -8.6307 C.ar    1  UNL1        0.0795
     22 C          19.0306   70.5247   -9.7980 C.ar    1  UNL1        0.2626
     23 H          17.1300   70.0606  -10.3312 H       1  UNL1        0.1734
     24 O          21.3780   72.2853   -0.5888 O.3     1  UNL1       -0.2703
     25 P          22.1670   71.3751    0.4892 P.3     1  UNL1        0.2208
     26 O          23.5884   71.0953   -0.2311 O.co2   1  UNL1       -0.4371
     27 O          21.4291   70.1357    0.9055 O.2     1  UNL1       -0.5170
     28 O          22.5150   72.3847    1.6994 O.3     1  UNL1       -0.2858
     29 O          24.3850   71.6251    2.9415 O.3     1  UNL1       -0.3258
     30 O          23.1674   74.7097    5.4020 O.3     1  UNL1       -0.3794
     31 O          25.5545   75.0055    3.8327 O.3     1  UNL1       -0.3794
     32 O          21.1958   73.0484    4.0857 O.3     1  UNL1       -0.3775
     33 C          23.3862   74.0480    4.1531 C.3     1  UNL1        0.1715
     34 C          24.8831   73.7623    4.0175 C.3     1  UNL1        0.1694
     35 C          22.5863   72.7468    4.1308 C.3     1  UNL1        0.1967
     36 C          25.1631   72.8231    2.8365 C.3     1  UNL1        0.1761
     37 C          22.9762   71.8644    2.9436 C.3     1  UNL1        0.2704
     38 H          23.6721   75.5369    5.4224 H       1  UNL1        0.2105
     39 H          25.3690   75.5894    4.5849 H       1  UNL1        0.2105
     40 H          20.9616   73.6071    4.8426 H       1  UNL1        0.2106
     41 O          26.6861   71.0223    2.4538 O.3     1  UNL1       -0.3794
     42 C          26.6290   72.3992    2.7780 C.3     1  UNL1        0.1693
     43 H          27.6132   70.7385    2.4128 H       1  UNL1        0.2105
@<TRIPOS>UNITY_ATOM_ATTR
2 1
charge -1
26 1
charge -1
@<TRIPOS>BOND
     1    25    28    1
     2    25    24    1
     3    25    26    1
     4    25    27    2
     5     1     4    1
     6     1    24    1
     7     1     2    1
     8     1     3    2
     9     6    11    1
    10     6    12    1
    11    29    36    1
    12    29    37    1
    13     7     9    1
    14     7    13    1
    15     8    10    1
    16     8    14    1
    17    28    37    1
    18     4     5    1
    19    30    33    1
    20    30    38    1
    21    31    34    1
    22    31    39    1
    23    32    35    1
    24    32    40    1
    25    41    42    1
    26    41    43    1
    27    15    19    2
    28    16    22    2
    29    17    12    1
    30    17    19   ar
    31    17    20   ar
    32    18    19   ar
    33    18    22   ar
    34    18    23    1
    35     9    10    1
    36     9    11    1
    37    10    12    1
    38    11     5    1
    39    33    34    1
    40    33    35    1
    41    34    36    1
    42    35    37    1
    43    36    42    1
    44    20    21   ar
    45    21    22   ar
@<TRIPOS>MOLECULE
*****
 43 45 0 0 0
SMALL
GASTEIGER

@<TRIPOS>ATOM
      1 P          20.5014   71.1751   -1.3314 P.3     1  UNL1        0.2189
      2 O          20.7111   70.4992    0.1235 O.co2   1  UNL1       -0.4371
      3 O          20.1066   72.6225   -1.3068 O.2     1  UNL1       -0.5170
      4 O          19.4689   70.1777   -2.0778 O.3     1  UNL1       -0.3112
      5 C          19.1852   70.4002   -3.4482 C.3     1  UNL1        0.1811
      6 O          17.5438   71.4463   -4.8571 O.3     1  UNL1       -0.3308
      7 O          15.4930   69.9521   -3.2594 O.3     1  UNL1       -0.3794
      8 O          15.6896   68.4503   -5.5271 O.3     1  UNL1       -0.3779
      9 C          16.7995   69.5417   -3.6594 C.3     1  UNL1        0.1713
     10 C          16.8166   69.2081   -5.1366 C.3     1  UNL1        0.1895
     11 C          17.7132   70.7594   -3.5978 C.3     1  UNL1        0.1764
     12 C          16.8415   70.5882   -5.7711 C.3     1  UNL1        0.2383
     13 H          14.8916   69.1910   -3.2904 H       1  UNL1        0.2105
     14 H          15.7194   67.5813   -5.0974 H       1  UNL1        0.2106
     15 O          15.5455   70.5560   -8.2805 O.2     1  UNL1       -0.2464
     16 O          19.5528   70.6245  -10.5562 O.2     1  UNL1       -0.2670
     17 N          17.5217   70.5975   -7.0355 N.ar    1  UNL1       -0.2551
     18 N          17.5419   70.5903   -9.4116 N.ar    1  UNL1       -0.2743
     19 C          16.7773   70.5787   -8.2380 C.ar    1  UNL1        0.3323
     20 C          18.9115   70.6254   -7.0745 C.ar    1  UNL1        0.0869
     21 C          19.6256   70.6348   -8.2020 C.ar    1  UNL1        0.0795
     22 C          18.9246   70.6165   -9.5021 C.ar    1  UNL1        0.2626
     23 H          17.0448   70.5772  -10.2616 H       1  UNL1        0.1734
     24 O          21.9027   70.8726   -2.0781 O.3     1  UNL1       -0.2703
     25 P          23.3491   71.5828   -1.9493 P.3     1  UNL1        0.2208
     26 O          24.2788   70.7153   -2.9498 O.co2   1  UNL1       -0.4371
     27 O          23.8678   71.6720   -0.5433 O.2     1  UNL1       -0.5170
     28 O          23.1725   73.0065   -2.6887 O.3     1  UNL1       -0.2858
     29 O          23.6865   73.0882   -5.0008 O.3     1  UNL1       -0.3258
     30 O          23.7778   77.1302   -4.1614 O.3     1  UNL1       -0.3794
     31 O          21.5921   76.0456   -5.6760 O.3     1  UNL1       -0.3794
     32 O          24.8213   75.2326   -2.2405 O.3     1  UNL1       -0.3775
     33 C          23.3130   75.7835   -4.0357 C.3     1  UNL1        0.1715
     34 C          22.7911   75.3271   -5.3995 C.3     1  UNL1        0.1694
     35 C          24.4697   74.8968   -3.5785 C.3     1  UNL1        0.1967
     36 C          22.5236   73.8160   -5.4130 C.3     1  UNL1        0.1761
     37 C          24.1161   73.4118   -3.6770 C.3     1  UNL1        0.2704
     38 H          23.0480   77.6986   -4.4510 H       1  UNL1        0.2105
     39 H          21.7746   76.9984   -5.6641 H       1  UNL1        0.2105
     40 H          25.0433   76.1750   -2.1915 H       1  UNL1        0.2106
     41 O          23.0160   72.2418   -7.1416 O.3     1  UNL1       -0.3794
     42 C          22.1533   73.3131   -6.8065 C.3     1  UNL1        0.1693
     43 H          22.7917   71.9113   -8.0260 H       1  UNL1        0.2105
@<TRIPOS>UNITY_ATOM_ATTR
2 1
charge -1
26 1
charge -1
@<TRIPOS>BOND
     1    25    28    1
     2    25    24    1
     3    25    26    1
     4    25    27    2
     5     1     4    1
     6     1    24    1
     7     1     2    1
     8     1     3    2
     9     6    11    1
    10     6    12    1
    11    29    36    1
    12    29    37    1
    13     7     9    1
    14     7    13    1
    15     8    10    1
    16     8    14    1
    17    28    37    1
    18     4     5    1
    19    30    33    1
    20    30    38    1
    21    31    34    1
    22    31    39    1
    23    32    35    1
    24    32    40    1
    25    41    42    1
    26    41    43    1
    27    15    19    2
    28    16    22    2
    29    17    12    1
    30    17    19   ar
    31    17    20   ar
    32    18    19   ar
    33    18    22   ar
    34    18    23    1
    35     9    10    1
    36     9    11    1
    37    10    12    1
    38    11     5    1
    39    33    34    1
    40    33    35    1
    41    34    36    1
    42    35    37    1
    43    36    42    1
    44    20    21   ar
    45    21    22   ar
@<TRIPOS>MOLECULE
*****
 43 45 0 0 0
SMALL
GASTEIGER

@<TRIPOS>ATOM
      1 P          20.2206   72.1581   -1.2110 P.3     1  UNL1        0.2189
      2 O          19.9334   70.5671   -1.1486 O.co2   1  UNL1       -0.4371
      3 O          19.1900   73.0150   -0.5366 O.2     1  UNL1       -0.5170
      4 O          20.4552   72.4489   -2.7853 O.3     1  UNL1       -0.3112
      5 C          19.8206   71.6053   -3.7306 C.3     1  UNL1        0.1811
      6 O          18.1006   72.4134   -5.2010 O.3     1  UNL1       -0.3308
      7 O          16.1452   71.3947   -3.1689 O.3     1  UNL1       -0.3794
      8 O          16.0973   69.4413   -5.0712 O.3     1  UNL1       -0.3779
      9 C          17.3984   70.8437   -3.5705 C.3     1  UNL1        0.1713
     10 C          17.2781   70.2062   -4.9390 C.3     1  UNL1        0.1895
     11 C          18.3540   71.9991   -3.8407 C.3     1  UNL1        0.1764
     12 C          17.2947   71.4189   -5.8540 C.3     1  UNL1        0.2383
     13 H          15.5183   70.6756   -2.9904 H       1  UNL1        0.2105
     14 H          16.1348   68.6818   -4.4691 H       1  UNL1        0.2106
     15 O          15.8320   70.4387   -8.0626 O.2     1  UNL1       -0.2464
     16 O          19.5851   70.3353  -10.7355 O.2     1  UNL1       -0.2670
     17 N          17.8643   71.1274   -7.1393 N.ar    1  UNL1       -0.2551
     18 N          17.7019   70.3882   -9.3918 N.ar    1  UNL1       -0.2743
     19 C          17.0427   70.6381   -8.1814 C.ar    1  UNL1        0.3323
     20 C          19.2232   71.3275   -7.3565 C.ar    1  UNL1        0.0869
     21 C          19.8368   71.0831   -8.5163 C.ar    1  UNL1        0.0795
     22 C          19.0501   70.5699   -9.6564 C.ar    1  UNL1        0.2626
     23 H          17.1497   70.0463  -10.1320 H       1  UNL1        0.1734
     24 O          21.7089   72.2833   -0.5927 O.3     1  UNL1       -0.2703
     25 P          22.5562   71.2772    0.3468 P.3     1  UNL1        0.2208
     26 O          23.6703   70.6777   -0.6615 O.co2   1  UNL1       -0.4371
     27 O          21.7254   70.2371    1.0409 O.2     1  UNL1       -0.5170
     28 O          23.3832   72.2445    1.3395 O.3     1  UNL1       -0.2858
     29 O          21.6164   73.7451    1.8325 O.3     1  UNL1       -0.3258
     30 O          24.2616   74.8400    4.8082 O.3     1  UNL1       -0.3794
     31 O          21.8970   73.3586    5.4878 O.3     1  UNL1       -0.3794
     32 O          25.2513   74.1656    2.1729 O.3     1  UNL1       -0.3775
     33 C          23.6057   73.9346    3.9164 C.3     1  UNL1        0.1715
     34 C          22.1059   73.9677    4.2167 C.3     1  UNL1        0.1694
     35 C          23.8755   74.3686    2.4769 C.3     1  UNL1        0.1967
     36 C          21.3075   73.2305    3.1331 C.3     1  UNL1        0.1761
     37 C          22.9952   73.6083    1.4833 C.3     1  UNL1        0.2704
     38 H          24.0947   74.5697    5.7240 H       1  UNL1        0.2105
     39 H          22.4069   73.8332    6.1629 H       1  UNL1        0.2105
     40 H          25.7980   74.6522    2.8086 H       1  UNL1        0.2106
     41 O          19.2547   73.9714    2.1605 O.3     1  UNL1       -0.3794
     42 C          19.8008   73.3854    3.3279 C.3     1  UNL1        0.1693
     43 H          18.2961   74.0758    2.2700 H       1  UNL1        0.2105
@<TRIPOS>UNITY_ATOM_ATTR
2 1
charge -1
26 1
charge -1
@<TRIPOS>BOND
     1    25    28    1
     2    25    24    1
     3    25    26    1
     4    25    27    2
     5     1     4    1
     6     1    24    1
     7     1     2    1
     8     1     3    2
     9     6    11    1
    10     6    12    1
    11    29    36    1
    12    29    37    1
    13     7     9    1
    14     7    13    1
    15     8    10    1
    16     8    14    1
    17    28    37    1
    18     4     5    1
    19    30    33    1
    20    30    38    1
    21    31    34    1
    22    31    39    1
    23    32    35    1
    24    32    40    1
    25    41    42    1
    26    41    43    1
    27    15    19    2
    28    16    22    2
    29    17    12    1
    30    17    19   ar
    31    17    20   ar
    32    18    19   ar
    33    18    22   ar
    34    18    23    1
    35     9    10    1
    36     9    11    1
    37    10    12    1
    38    11     5    1
    39    33    34    1
    40    33    35    1
    41    34    36    1
    42    35    37    1
    43    36    42    1
    44    20    21   ar
    45    21    22   ar
@<TRIPOS>MOLECULE
*****
 43 45 0 0 0
SMALL
GASTEIGER

@<TRIPOS>ATOM
      1 P          21.8018   72.9086   -1.6638 P.3     1  UNL1        0.2189
      2 O          20.6412   73.5215   -0.7180 O.co2   1  UNL1       -0.4371
      3 O          22.5528   73.9185   -2.4808 O.2     1  UNL1       -0.5170
      4 O          21.0475   71.7479   -2.5015 O.3     1  UNL1       -0.3112
      5 C          20.5221   72.0680   -3.7779 C.3     1  UNL1        0.1811
      6 O          20.7818   70.6455   -5.6969 O.3     1  UNL1       -0.3308
      7 O          23.2209   72.2681   -6.3363 O.3     1  UNL1       -0.3794
      8 O          21.3558   73.3041   -8.0347 O.3     1  UNL1       -0.3779
      9 C          21.9816   72.6878   -5.7676 C.3     1  UNL1        0.1713
     10 C          20.9017   72.7242   -6.8287 C.3     1  UNL1        0.1895
     11 C          21.4872   71.5777   -4.8486 C.3     1  UNL1        0.1764
     12 C          20.5593   71.2519   -6.9805 C.3     1  UNL1        0.2383
     13 H          23.5566   72.9612   -6.9270 H       1  UNL1        0.2105
     14 H          21.5604   74.2405   -7.8864 H       1  UNL1        0.2106
     15 O          19.6843   70.8905   -9.6417 O.2     1  UNL1       -0.2464
     16 O          15.2862   70.4654   -8.3313 O.2     1  UNL1       -0.2670
     17 N          19.1912   71.0444   -7.3634 N.ar    1  UNL1       -0.2551
     18 N          17.4951   70.6789   -8.9870 N.ar    1  UNL1       -0.2743
     19 C          18.8576   70.8745   -8.7274 C.ar    1  UNL1        0.3323
     20 C          18.1971   71.0105   -6.3916 C.ar    1  UNL1        0.0869
     21 C          16.9022   70.8243   -6.6558 C.ar    1  UNL1        0.0795
     22 C          16.4694   70.6386   -8.0559 C.ar    1  UNL1        0.2626
     23 H          17.2390   70.5587   -9.9303 H       1  UNL1        0.1734
     24 O          22.7139   72.0719   -0.6241 O.3     1  UNL1       -0.2703
     25 P          22.3394   71.3463    0.7709 P.3     1  UNL1        0.2208
     26 O          23.5725   70.3243    1.0003 O.co2   1  UNL1       -0.4371
     27 O          20.9861   70.6964    0.7826 O.2     1  UNL1       -0.5170
     28 O          22.5426   72.4885    1.8930 O.3     1  UNL1       -0.2858
     29 O          24.5074   72.2577    3.1979 O.3     1  UNL1       -0.3258
     30 O          22.5015   75.0292    5.5101 O.3     1  UNL1       -0.3794
     31 O          24.7842   75.8509    3.9731 O.3     1  UNL1       -0.3794
     32 O          21.0361   72.8879    4.2266 O.3     1  UNL1       -0.3775
     33 C          22.9104   74.3992    4.2929 C.3     1  UNL1        0.1715
     34 C          24.4347   74.4876    4.1957 C.3     1  UNL1        0.1694
     35 C          22.4563   72.9408    4.3087 C.3     1  UNL1        0.1967
     36 C          24.9693   73.6064    3.0587 C.3     1  UNL1        0.1761
     37 C          23.0836   72.1416    3.1651 C.3     1  UNL1        0.2704
     38 H          22.7864   75.9556    5.5063 H       1  UNL1        0.2105
     39 H          24.4404   76.3966    4.6978 H       1  UNL1        0.2105
     40 H          20.6510   73.3973    4.9561 H       1  UNL1        0.2106
     41 O          26.9726   74.0087    4.2972 O.3     1  UNL1       -0.3794
     42 C          26.4955   73.5559    3.0435 C.3     1  UNL1        0.1693
     43 H          27.9427   73.9817    4.3022 H       1  UNL1        0.2105
@<TRIPOS>UNITY_ATOM_ATTR
2 1
charge -1
26 1
charge -1
@<TRIPOS>BOND
     1    25    28    1
     2    25    24    1
     3    25    26    1
     4    25    27    2
     5     1     4    1
     6     1    24    1
     7     1     2    1
     8     1     3    2
     9     6    11    1
    10     6    12    1
    11    29    36    1
    12    29    37    1
    13     7     9    1
    14     7    13    1
    15     8    10    1
    16     8    14    1
    17    28    37    1
    18     4     5    1
    19    30    33    1
    20    30    38    1
    21    31    34    1
    22    31    39    1
    23    32    35    1
    24    32    40    1
    25    41    42    1
    26    41    43    1
    27    15    19    2
    28    16    22    2
    29    17    12    1
    30    17    19   ar
    31    17    20   ar
    32    18    19   ar
    33    18    22   ar
    34    18    23    1
    35     9    10    1
    36     9    11    1
    37    10    12    1
    38    11     5    1
    39    33    34    1
    40    33    35    1
    41    34    36    1
    42    35    37    1
    43    36    42    1
    44    20    21   ar
    45    21    22   ar
@<TRIPOS>MOLECULE
*****
 43 45 0 0 0
SMALL
GASTEIGER

@<TRIPOS>ATOM
      1 P          23.1421   71.5899   -2.5481 P.3     1  UNL1        0.2189
      2 O          23.3364   73.1562   -2.1926 O.co2   1  UNL1       -0.4371
      3 O          24.3228   70.9380   -3.2056 O.2     1  UNL1       -0.5170
      4 O          21.7599   71.5509   -3.3883 O.3     1  UNL1       -0.3112
      5 C          21.5276   72.5604   -4.3551 C.3     1  UNL1        0.1811
      6 O          20.5928   70.7112   -5.5718 O.3     1  UNL1       -0.3308
      7 O          21.0097   72.3652   -8.0378 O.3     1  UNL1       -0.3794
      8 O          18.3461   72.6869   -7.5497 O.3     1  UNL1       -0.3779
      9 C          20.6319   72.7804   -6.7263 C.3     1  UNL1        0.1713
     10 C          19.1901   72.4069   -6.4515 C.3     1  UNL1        0.1895
     11 C          21.3820   71.9113   -5.7246 C.3     1  UNL1        0.1764
     12 C          19.2996   70.9194   -6.1625 C.3     1  UNL1        0.2383
     13 H          20.5435   72.9063   -8.6949 H       1  UNL1        0.2105
     14 H          18.3093   73.6454   -7.6932 H       1  UNL1        0.2106
     15 O          16.7547   69.9711   -6.9385 O.2     1  UNL1       -0.2464
     16 O          15.5085   69.1970   -2.5694 O.2     1  UNL1       -0.2670
     17 N          18.2905   70.4633   -5.2486 N.ar    1  UNL1       -0.2551
     18 N          16.1363   69.5863   -4.7624 N.ar    1  UNL1       -0.2743
     19 C          17.0454   70.0078   -5.7411 C.ar    1  UNL1        0.3323
     20 C          18.5404   70.4703   -3.8806 C.ar    1  UNL1        0.0869
     21 C          17.6624   70.0662   -2.9603 C.ar    1  UNL1        0.0795
     22 C          16.3375   69.5754   -3.3913 C.ar    1  UNL1        0.2626
     23 H          15.2620   69.2651   -5.0821 H       1  UNL1        0.1734
     24 O          22.7218   70.9440   -1.1271 O.3     1  UNL1       -0.2703
     25 P          21.8114   71.5253    0.0754 P.3     1  UNL1        0.2208
     26 O          21.4880   70.2125    0.9639 O.co2   1  UNL1       -0.4371
     27 O          20.5958   72.2785   -0.3818 O.2     1  UNL1       -0.5170
     28 O          22.8320   72.3885    0.9800 O.3     1  UNL1       -0.2858
     29 O          21.8706   73.9642    2.4664 O.3     1  UNL1       -0.3258
     30 O          25.7484   75.3824    2.4192 O.3     1  UNL1       -0.3794
     31 O          24.7610   74.0314    4.7533 O.3     1  UNL1       -0.3794
     32 O          24.5510   74.3712   -0.0146 O.3     1  UNL1       -0.3775
     33 C          24.7262   74.3827    2.3876 C.3     1  UNL1        0.1715
     34 C          23.9251   74.4746    3.6878 C.3     1  UNL1        0.1694
     35 C          23.8229   74.6303    1.1809 C.3     1  UNL1        0.1967
     36 C          22.6525   73.6199    3.6160 C.3     1  UNL1        0.1761
     37 C          22.5623   73.7651    1.2320 C.3     1  UNL1        0.2704
     38 H          26.3257   75.2307    3.1828 H       1  UNL1        0.2105
     39 H          25.5611   74.5790    4.7873 H       1  UNL1        0.2105
     40 H          25.3464   74.9251   -0.0351 H       1  UNL1        0.2106
     41 O          22.1677   72.9124    5.8462 O.3     1  UNL1       -0.3794
     42 C          21.7597   73.8197    4.8388 C.3     1  UNL1        0.1693
     43 H          21.6084   73.0284    6.6307 H       1  UNL1        0.2105
@<TRIPOS>UNITY_ATOM_ATTR
2 1
charge -1
26 1
charge -1
@<TRIPOS>BOND
     1    25    28    1
     2    25    24    1
     3    25    26    1
     4    25    27    2
     5     1     4    1
     6     1    24    1
     7     1     2    1
     8     1     3    2
     9     6    11    1
    10     6    12    1
    11    29    36    1
    12    29    37    1
    13     7     9    1
    14     7    13    1
    15     8    10    1
    16     8    14    1
    17    28    37    1
    18     4     5    1
    19    30    33    1
    20    30    38    1
    21    31    34    1
    22    31    39    1
    23    32    35    1
    24    32    40    1
    25    41    42    1
    26    41    43    1
    27    15    19    2
    28    16    22    2
    29    17    12    1
    30    17    19   ar
    31    17    20   ar
    32    18    19   ar
    33    18    22   ar
    34    18    23    1
    35     9    10    1
    36     9    11    1
    37    10    12    1
    38    11     5    1
    39    33    34    1
    40    33    35    1
    41    34    36    1
    42    35    37    1
    43    36    42    1
    44    20    21   ar
    45    21    22   ar
@<TRIPOS>MOLECULE
*****
 43 45 0 0 0
SMALL
GASTEIGER

@<TRIPOS>ATOM
      1 P          20.8349   73.1575   -3.4615 P.3     1  UNL1        0.2189
      2 O          20.4050   73.2723   -1.9060 O.co2   1  UNL1       -0.4371
      3 O          21.2547   74.4488   -4.1000 O.2     1  UNL1       -0.5170
      4 O          19.5823   72.4048   -4.1561 O.3     1  UNL1       -0.3112
      5 C          19.0450   71.2584   -3.5199 C.3     1  UNL1        0.1811
      6 O          17.2406   71.7149   -5.0396 O.3     1  UNL1       -0.3308
      7 O          15.5461   70.0134   -3.2439 O.3     1  UNL1       -0.3794
      8 O          16.1255   68.3160   -5.2981 O.3     1  UNL1       -0.3779
      9 C          16.9198   69.8618   -3.5978 C.3     1  UNL1        0.1713
     10 C          17.0437   69.3533   -5.0190 C.3     1  UNL1        0.1895
     11 C          17.5336   71.2523   -3.7029 C.3     1  UNL1        0.1764
     12 C          16.7701   70.6097   -5.8281 C.3     1  UNL1        0.2383
     13 H          15.1328   69.1384   -3.1706 H       1  UNL1        0.2105
     14 H          16.3414   67.5391   -4.7591 H       1  UNL1        0.2106
     15 O          15.4886   70.5877   -8.3451 O.2     1  UNL1       -0.2464
     16 O          19.5097   70.6103  -10.5972 O.2     1  UNL1       -0.2670
     17 N          17.4578   70.6099   -7.0885 N.ar    1  UNL1       -0.2551
     18 N          17.4918   70.5991   -9.4645 N.ar    1  UNL1       -0.2743
     19 C          16.7203   70.5973   -8.2954 C.ar    1  UNL1        0.3323
     20 C          18.8480   70.6229   -7.1194 C.ar    1  UNL1        0.0869
     21 C          19.5688   70.6231   -8.2427 C.ar    1  UNL1        0.0795
     22 C          18.8752   70.6105   -9.5468 C.ar    1  UNL1        0.2626
     23 H          16.9996   70.5901  -10.3173 H       1  UNL1        0.1734
     24 O          21.9783   72.0151   -3.4393 O.3     1  UNL1       -0.2703
     25 P          23.4062   71.9569   -2.6838 P.3     1  UNL1        0.2208
     26 O          24.1283   73.3279   -3.1492 O.co2   1  UNL1       -0.4371
     27 O          24.1997   70.7134   -2.9628 O.2     1  UNL1       -0.5170
     28 O          23.0540   72.1902   -1.1261 O.3     1  UNL1       -0.2858
     29 O          24.2680   71.1104    0.5993 O.3     1  UNL1       -0.3258
     30 O          20.7416   71.8291    2.6239 O.3     1  UNL1       -0.3794
     31 O          23.0827   73.3643    3.2647 O.3     1  UNL1       -0.3794
     32 O          20.6737   71.0564   -0.1649 O.3     1  UNL1       -0.3775
     33 C          21.7893   72.1097    1.6917 C.3     1  UNL1        0.1715
     34 C          23.1088   72.1871    2.4623 C.3     1  UNL1        0.1694
     35 C          21.8406   70.9954    0.6482 C.3     1  UNL1        0.1967
     36 C          24.3081   72.2191    1.5053 C.3     1  UNL1        0.1761
     37 C          23.0969   71.0914   -0.2194 C.3     1  UNL1        0.2704
     38 H          20.7033   72.5332    3.2890 H       1  UNL1        0.2105
     39 H          22.3205   73.3317    3.8640 H       1  UNL1        0.2105
     40 H          19.8854   70.9943    0.3959 H       1  UNL1        0.2106
     41 O          26.0583   70.7856    2.2740 O.3     1  UNL1       -0.3794
     42 C          25.6378   72.1373    2.2518 C.3     1  UNL1        0.1693
     43 H          26.9036   70.7183    2.7457 H       1  UNL1        0.2105
@<TRIPOS>UNITY_ATOM_ATTR
2 1
charge -1
26 1
charge -1
@<TRIPOS>BOND
     1    25    28    1
     2    25    24    1
     3    25    26    1
     4    25    27    2
     5     1     4    1
     6     1    24    1
     7     1     2    1
     8     1     3    2
     9     6    11    1
    10     6    12    1
    11    29    36    1
    12    29    37    1
    13     7     9    1
    14     7    13    1
    15     8    10    1
    16     8    14    1
    17    28    37    1
    18     4     5    1
    19    30    33    1
    20    30    38    1
    21    31    34    1
    22    31    39    1
    23    32    35    1
    24    32    40    1
    25    41    42    1
    26    41    43    1
    27    15    19    2
    28    16    22    2
    29    17    12    1
    30    17    19   ar
    31    17    20   ar
    32    18    19   ar
    33    18    22   ar
    34    18    23    1
    35     9    10    1
    36     9    11    1
    37    10    12    1
    38    11     5    1
    39    33    34    1
    40    33    35    1
    41    34    36    1
    42    35    37    1
    43    36    42    1
    44    20    21   ar
    45    21    22   ar
@<TRIPOS>MOLECULE
*****
 43 45 0 0 0
SMALL
GASTEIGER

@<TRIPOS>ATOM
      1 P          23.1539   72.6960   -3.5107 P.3     1  UNL1        0.2189
      2 O          22.8738   71.1277   -3.2291 O.co2   1  UNL1       -0.4371
      3 O          24.4893   73.0013   -4.1232 O.2     1  UNL1       -0.5170
      4 O          22.8549   73.4056   -2.0877 O.3     1  UNL1       -0.3112
      5 C          21.8808   74.4334   -2.0362 C.3     1  UNL1        0.1811
      6 O          21.1061   72.7367   -0.5213 O.3     1  UNL1       -0.3308
      7 O          19.0650   74.7390    0.3817 O.3     1  UNL1       -0.3794
      8 O          20.9438   74.8748    2.3536 O.3     1  UNL1       -0.3779
      9 C          20.4181   74.9481   -0.0191 C.3     1  UNL1        0.1713
     10 C          21.3660   74.4785    1.0647 C.3     1  UNL1        0.1895
     11 C          20.7266   73.9788   -1.1534 C.3     1  UNL1        0.1764
     12 C          21.3366   72.9711    0.8775 C.3     1  UNL1        0.2383
     13 H          18.8446   75.3473    1.1052 H       1  UNL1        0.2105
     14 H          20.9802   75.8415    2.4230 H       1  UNL1        0.2106
     15 O          21.7093   70.1817    1.1194 O.2     1  UNL1       -0.2464
     16 O          26.1234   70.6928    2.3423 O.2     1  UNL1       -0.2670
     17 N          22.5730   72.3478    1.2572 N.ar    1  UNL1       -0.2551
     18 N          23.9069   70.4385    1.7279 N.ar    1  UNL1       -0.2743
     19 C          22.6543   70.9388    1.3502 C.ar    1  UNL1        0.3323
     20 C          23.6883   73.1316    1.5323 C.ar    1  UNL1        0.0869
     21 C          24.8753   72.6390    1.8926 C.ar    1  UNL1        0.0795
     22 C          25.0447   71.1765    2.0131 C.ar    1  UNL1        0.2626
     23 H          23.9871   69.4596    1.7996 H       1  UNL1        0.1734
     24 O          21.8849   73.1361   -4.4100 O.3     1  UNL1       -0.2703
     25 P          21.7119   73.2623   -6.0122 P.3     1  UNL1        0.2208
     26 O          22.8270   72.2410   -6.5874 O.co2   1  UNL1       -0.4371
     27 O          21.8282   74.6647   -6.5352 O.2     1  UNL1       -0.5170
     28 O          20.3008   72.5454   -6.3284 O.3     1  UNL1       -0.2858
     29 O          19.2569   70.4308   -6.0932 O.3     1  UNL1       -0.3258
     30 O          18.6245   71.0335  -10.1290 O.3     1  UNL1       -0.3794
     31 O          16.4190   71.2427   -8.3014 O.3     1  UNL1       -0.3794
     32 O          21.1238   71.8540   -8.9207 O.3     1  UNL1       -0.3775
     33 C          18.7598   71.4215   -8.7591 C.3     1  UNL1        0.1715
     34 C          17.6859   70.6954   -7.9467 C.3     1  UNL1        0.1694
     35 C          20.1551   71.0404   -8.2679 C.3     1  UNL1        0.1967
     36 C          17.9319   70.8503   -6.4398 C.3     1  UNL1        0.1761
     37 C          20.2783   71.1841   -6.7499 C.3     1  UNL1        0.2704
     38 H          17.7409   71.2732  -10.4472 H       1  UNL1        0.2105
     39 H          16.2763   71.1389   -9.2554 H       1  UNL1        0.2105
     40 H          21.0357   71.7540   -9.8809 H       1  UNL1        0.2106
     41 O          16.0097   69.4318   -6.4856 O.3     1  UNL1       -0.3794
     42 C          16.9657   70.0050   -5.6127 C.3     1  UNL1        0.1693
     43 H          15.3882   68.8908   -5.9730 H       1  UNL1        0.2105
@<TRIPOS>UNITY_ATOM_ATTR
2 1
charge -1
26 1
charge -1
@<TRIPOS>BOND
     1    25    28    1
     2    25    24    1
     3    25    26    1
     4    25    27    2
     5     1     4    1
     6     1    24    1
     7     1     2    1
     8     1     3    2
     9     6    11    1
    10     6    12    1
    11    29    36    1
    12    29    37    1
    13     7     9    1
    14     7    13    1
    15     8    10    1
    16     8    14    1
    17    28    37    1
    18     4     5    1
    19    30    33    1
    20    30    38    1
    21    31    34    1
    22    31    39    1
    23    32    35    1
    24    32    40    1
    25    41    42    1
    26    41    43    1
    27    15    19    2
    28    16    22    2
    29    17    12    1
    30    17    19   ar
    31    17    20   ar
    32    18    19   ar
    33    18    22   ar
    34    18    23    1
    35     9    10    1
    36     9    11    1
    37    10    12    1
    38    11     5    1
    39    33    34    1
    40    33    35    1
    41    34    36    1
    42    35    37    1
    43    36    42    1
    44    20    21   ar
    45    21    22   ar
@<TRIPOS>MOLECULE
*****
 43 45 0 0 0
SMALL
GASTEIGER

@<TRIPOS>ATOM
      1 P          20.7836   71.2178   -2.0447 P.3     1  UNL1        0.2189
      2 O          22.2597   70.7887   -2.5492 O.co2   1  UNL1       -0.4371
      3 O          20.3042   70.5089   -0.8122 O.2     1  UNL1       -0.5170
      4 O          19.8577   71.0441   -3.3601 O.3     1  UNL1       -0.3112
      5 C          19.1602   72.1759   -3.8502 C.3     1  UNL1        0.1811
      6 O          17.2364   72.0161   -5.2811 O.3     1  UNL1       -0.3308
      7 O          15.9950   70.3573   -3.1136 O.3     1  UNL1       -0.3794
      8 O          16.8108   68.4744   -4.9096 O.3     1  UNL1       -0.3779
      9 C          17.3546   70.4101   -3.5426 C.3     1  UNL1        0.1713
     10 C          17.5151   69.6988   -4.8700 C.3     1  UNL1        0.1895
     11 C          17.6737   71.8528   -3.9142 C.3     1  UNL1        0.1764
     12 C          16.9617   70.7235   -5.8455 C.3     1  UNL1        0.2383
     13 H          15.7679   69.4455   -2.8706 H       1  UNL1        0.2105
     14 H          17.2005   67.8562   -4.2719 H       1  UNL1        0.2106
     15 O          15.5463   70.6394   -8.2884 O.2     1  UNL1       -0.2464
     16 O          19.4378   70.3953  -10.7455 O.2     1  UNL1       -0.2670
     17 N          17.5798   70.6384   -7.1386 N.ar    1  UNL1       -0.2551
     18 N          17.4851   70.5181   -9.5099 N.ar    1  UNL1       -0.2743
     19 C          16.7784   70.6010   -8.3034 C.ar    1  UNL1        0.3323
     20 C          18.9658   70.5931   -7.2425 C.ar    1  UNL1        0.0869
     21 C          19.6244   70.5128   -8.4005 C.ar    1  UNL1        0.0795
     22 C          18.8615   70.4692   -9.6647 C.ar    1  UNL1        0.2626
     23 H          16.9476   70.4904  -10.3346 H       1  UNL1        0.1734
     24 O          20.9033   72.8228   -1.8940 O.3     1  UNL1       -0.2703
     25 P          20.4013   73.8196   -0.7247 P.3     1  UNL1        0.2208
     26 O          18.8394   73.4337   -0.5534 O.co2   1  UNL1       -0.4371
     27 O          20.6529   75.2729   -1.0049 O.2     1  UNL1       -0.5170
     28 O          21.1077   73.2649    0.6163 O.3     1  UNL1       -0.2858
     29 O          22.5628   74.5504    1.9751 O.3     1  UNL1       -0.3258
     30 O          24.0221   70.7825    2.8262 O.3     1  UNL1       -0.3794
     31 O          22.4973   72.1937    4.8090 O.3     1  UNL1       -0.3794
     32 O          23.1745   71.4287    0.1348 O.3     1  UNL1       -0.3775
     33 C          23.0163   71.7509    2.5165 C.3     1  UNL1        0.1715
     34 C          23.0066   72.8039    3.6264 C.3     1  UNL1        0.1694
     35 C          23.3398   72.3931    1.1688 C.3     1  UNL1        0.1967
     36 C          22.1457   74.0127    3.2356 C.3     1  UNL1        0.1761
     37 C          22.4598   73.6151    0.8997 C.3     1  UNL1        0.2704
     38 H          23.8223   70.3706    3.6806 H       1  UNL1        0.2105
     39 H          23.0495   71.4317    5.0446 H       1  UNL1        0.2105
     40 H          23.7370   70.6603    0.3166 H       1  UNL1        0.2106
     41 O          23.4312   74.9588    5.0136 O.3     1  UNL1       -0.3794
     42 C          22.2480   75.1423    4.2582 C.3     1  UNL1        0.1693
     43 H          23.5097   75.6707    5.6684 H       1  UNL1        0.2105
@<TRIPOS>UNITY_ATOM_ATTR
2 1
charge -1
26 1
charge -1
@<TRIPOS>BOND
     1    25    28    1
     2    25    24    1
     3    25    26    1
     4    25    27    2
     5     1     4    1
     6     1    24    1
     7     1     2    1
     8     1     3    2
     9     6    11    1
    10     6    12    1
    11    29    36    1
    12    29    37    1
    13     7     9    1
    14     7    13    1
    15     8    10    1
    16     8    14    1
    17    28    37    1
    18     4     5    1
    19    30    33    1
    20    30    38    1
    21    31    34    1
    22    31    39    1
    23    32    35    1
    24    32    40    1
    25    41    42    1
    26    41    43    1
    27    15    19    2
    28    16    22    2
    29    17    12    1
    30    17    19   ar
    31    17    20   ar
    32    18    19   ar
    33    18    22   ar
    34    18    23    1
    35     9    10    1
    36     9    11    1
    37    10    12    1
    38    11     5    1
    39    33    34    1
    40    33    35    1
    41    34    36    1
    42    35    37    1
    43    36    42    1
    44    20    21   ar
    45    21    22   ar
@<TRIPOS>MOLECULE
*****
 43 45 0 0 0
SMALL
GASTEIGER

@<TRIPOS>ATOM
      1 P          22.7714   70.9985    0.7056 P.3     1  UNL1        0.2189
      2 O          21.4509   70.1102    0.9965 O.co2   1  UNL1       -0.4371
      3 O          23.9475   70.6926    1.5858 O.2     1  UNL1       -0.5170
      4 O          22.2329   72.5234    0.7574 O.3     1  UNL1       -0.3112
      5 C          22.5160   73.3017    1.9072 C.3     1  UNL1        0.1811
      6 O          22.4352   72.5774    4.1968 O.3     1  UNL1       -0.3308
      7 O          19.5206   73.2774    4.1198 O.3     1  UNL1       -0.3794
      8 O          20.6129   75.4205    5.4046 O.3     1  UNL1       -0.3779
      9 C          20.6215   73.9269    3.4862 C.3     1  UNL1        0.1713
     10 C          21.4315   74.7022    4.5042 C.3     1  UNL1        0.1895
     11 C          21.6088   72.8536    3.0449 C.3     1  UNL1        0.1764
     12 C          22.2212   73.5977    5.1858 C.3     1  UNL1        0.2383
     13 H          18.8764   73.9427    4.4101 H       1  UNL1        0.2105
     14 H          20.1314   76.1114    4.9233 H       1  UNL1        0.2106
     15 O          22.8575   73.9526    7.9147 O.2     1  UNL1       -0.2464
     16 O          27.1362   75.3500    6.9240 O.2     1  UNL1       -0.2670
     17 N          23.4941   74.0528    5.6694 N.ar    1  UNL1       -0.2551
     18 N          24.9875   74.6479    7.4192 N.ar    1  UNL1       -0.2743
     19 C          23.7106   74.1983    7.0595 C.ar    1  UNL1        0.3323
     20 C          24.5117   74.3493    4.7691 C.ar    1  UNL1        0.0869
     21 C          25.7234   74.7783    5.1283 C.ar    1  UNL1        0.0795
     22 C          26.0316   74.9570    6.5618 C.ar    1  UNL1        0.2626
     23 H          25.1612   74.7571    8.3824 H       1  UNL1        0.1734
     24 O          23.0310   70.7582   -0.8717 O.3     1  UNL1       -0.2703
     25 P          22.8347   71.7392   -2.1413 P.3     1  UNL1        0.2208
     26 O          23.9986   71.2649   -3.1601 O.co2   1  UNL1       -0.4371
     27 O          22.8679   73.2010   -1.8005 O.2     1  UNL1       -0.5170
     28 O          21.4622   71.2444   -2.8315 O.3     1  UNL1       -0.2858
     29 O          21.0569   72.8335   -4.5425 O.3     1  UNL1       -0.3258
     30 O          17.8195   70.3482   -5.1699 O.3     1  UNL1       -0.3794
     31 O          20.0008   70.3342   -7.0379 O.3     1  UNL1       -0.3794
     32 O          18.6978   70.9222   -2.4719 O.3     1  UNL1       -0.3775
     33 C          19.1692   70.6666   -4.8201 C.3     1  UNL1        0.1715
     34 C          19.8349   71.3267   -6.0291 C.3     1  UNL1        0.1694
     35 C          19.1641   71.6165   -3.6239 C.3     1  UNL1        0.1967
     36 C          21.1917   71.9358   -5.6505 C.3     1  UNL1        0.1761
     37 C          20.5522   72.2039   -3.3631 C.3     1  UNL1        0.2704
     38 H          17.8157   69.7449   -5.9285 H       1  UNL1        0.2105
     39 H          19.1369   69.9573   -7.2676 H       1  UNL1        0.2105
     40 H          17.8182   70.5553   -2.6497 H       1  UNL1        0.2106
     41 O          23.1676   72.3848   -6.9166 O.3     1  UNL1       -0.3794
     42 C          21.8008   72.7349   -6.8005 C.3     1  UNL1        0.1693
     43 H          23.5683   72.8855   -7.6450 H       1  UNL1        0.2105
@<TRIPOS>UNITY_ATOM_ATTR
2 1
charge -1
26 1
charge -1
@<TRIPOS>BOND
     1    25    28    1
     2    25    24    1
     3    25    26    1
     4    25    27    2
     5     1     4    1
     6     1    24    1
     7     1     2    1
     8     1     3    2
     9     6    11    1
    10     6    12    1
    11    29    36    1
    12    29    37    1
    13     7     9    1
    14     7    13    1
    15     8    10    1
    16     8    14    1
    17    28    37    1
    18     4     5    1
    19    30    33    1
    20    30    38    1
    21    31    34    1
    22    31    39    1
    23    32    35    1
    24    32    40    1
    25    41    42    1
    26    41    43    1
    27    15    19    2
    28    16    22    2
    29    17    12    1
    30    17    19   ar
    31    17    20   ar
    32    18    19   ar
    33    18    22   ar
    34    18    23    1
    35     9    10    1
    36     9    11    1
    37    10    12    1
    38    11     5    1
    39    33    34    1
    40    33    35    1
    41    34    36    1
    42    35    37    1
    43    36    42    1
    44    20    21   ar
    45    21    22   ar
@<TRIPOS>MOLECULE
*****
 43 45 0 0 0
SMALL
GASTEIGER

@<TRIPOS>ATOM
      1 P          23.2409   71.5730   -2.0053 P.3     1  UNL1        0.2189
      2 O          23.3789   73.1743   -1.8207 O.co2   1  UNL1       -0.4371
      3 O          24.1307   70.9771   -3.0563 O.2     1  UNL1       -0.5170
      4 O          21.6533   71.3415   -2.2149 O.3     1  UNL1       -0.3112
      5 C          21.0227   71.9498   -3.3285 C.3     1  UNL1        0.1811
      6 O          21.2307   70.8031   -5.4299 O.3     1  UNL1       -0.3308
      7 O          23.2692   72.8811   -6.1488 O.3     1  UNL1       -0.3794
      8 O          21.0441   73.7515   -7.4633 O.3     1  UNL1       -0.3779
      9 C          22.0718   73.0181   -5.3855 C.3     1  UNL1        0.1713
     10 C          20.8612   72.9785   -6.2946 C.3     1  UNL1        0.1895
     11 C          21.8926   71.7489   -4.5618 C.3     1  UNL1        0.1764
     12 C          20.7371   71.4933   -6.5895 C.3     1  UNL1        0.2383
     13 H          23.4051   73.6800   -6.6830 H       1  UNL1        0.2105
     14 H          21.1175   74.6884   -7.2232 H       1  UNL1        0.2106
     15 O          18.7385   71.3703   -4.5975 O.2     1  UNL1       -0.2464
     16 O          15.5604   69.9449   -7.6157 O.2     1  UNL1       -0.2670
     17 N          19.3787   71.0937   -6.8270 N.ar    1  UNL1       -0.2551
     18 N          17.1576   70.6609   -6.1020 N.ar    1  UNL1       -0.2743
     19 C          18.4537   71.0651   -5.7574 C.ar    1  UNL1        0.3323
     20 C          18.9756   70.7360   -8.1090 C.ar    1  UNL1        0.0869
     21 C          17.7362   70.3516   -8.4208 C.ar    1  UNL1        0.0795
     22 C          16.7088   70.2944   -7.3610 C.ar    1  UNL1        0.2626
     23 H          16.4962   70.6329   -5.3729 H       1  UNL1        0.1734
     24 O          23.4957   71.0116   -0.5110 O.3     1  UNL1       -0.2703
     25 P          22.5735   71.0672    0.8155 P.3     1  UNL1        0.2208
     26 O          23.6091   70.7001    2.0030 O.co2   1  UNL1       -0.4371
     27 O          21.3594   70.1861    0.7582 O.2     1  UNL1       -0.5170
     28 O          22.2528   72.6352    1.0246 O.3     1  UNL1       -0.2858
     29 O          20.8580   73.3774    2.7910 O.3     1  UNL1       -0.3258
     30 O          20.4318   76.5824    0.2225 O.3     1  UNL1       -0.3794
     31 O          21.9853   76.8829    2.6192 O.3     1  UNL1       -0.3794
     32 O          20.5697   73.8918   -0.8364 O.3     1  UNL1       -0.3775
     33 C          21.1267   75.5076    0.8607 C.3     1  UNL1        0.1715
     34 C          21.1331   75.7689    2.3682 C.3     1  UNL1        0.1694
     35 C          20.4125   74.1946    0.5457 C.3     1  UNL1        0.1967
     36 C          21.6221   74.5370    3.1418 C.3     1  UNL1        0.1761
     37 C          20.9412   73.0440    1.4040 C.3     1  UNL1        0.2704
     38 H          20.8804   77.4190    0.4181 H       1  UNL1        0.2105
     39 H          21.6658   77.6539    2.1245 H       1  UNL1        0.2105
     40 H          20.2310   74.6276   -1.3690 H       1  UNL1        0.2106
     41 O          20.6505   73.6952    5.1558 O.3     1  UNL1       -0.3794
     42 C          21.4878   74.7196    4.6520 C.3     1  UNL1        0.1693
     43 H          20.5562   73.7985    6.1161 H       1  UNL1        0.2105
@<TRIPOS>UNITY_ATOM_ATTR
2 1
charge -1
26 1
charge -1
@<TRIPOS>BOND
     1    25    28    1
     2    25    24    1
     3    25    26    1
     4    25    27    2
     5     1     4    1
     6     1    24    1
     7     1     2    1
     8     1     3    2
     9     6    11    1
    10     6    12    1
    11    29    36    1
    12    29    37    1
    13     7     9    1
    14     7    13    1
    15     8    10    1
    16     8    14    1
    17    28    37    1
    18     4     5    1
    19    30    33    1
    20    30    38    1
    21    31    34    1
    22    31    39    1
    23    32    35    1
    24    32    40    1
    25    41    42    1
    26    41    43    1
    27    15    19    2
    28    16    22    2
    29    17    12    1
    30    17    19   ar
    31    17    20   ar
    32    18    19   ar
    33    18    22   ar
    34    18    23    1
    35     9    10    1
    36     9    11    1
    37    10    12    1
    38    11     5    1
    39    33    34    1
    40    33    35    1
    41    34    36    1
    42    35    37    1
    43    36    42    1
    44    20    21   ar
    45    21    22   ar
@<TRIPOS>MOLECULE
*****
 43 45 0 0 0
SMALL
GASTEIGER

@<TRIPOS>ATOM
      1 P          21.7420   73.1405   -1.4841 P.3     1  UNL1        0.2189
      2 O          20.5707   74.0412   -0.8250 O.co2   1  UNL1       -0.4371
      3 O          22.7662   73.9075   -2.2678 O.2     1  UNL1       -0.5170
      4 O          20.9397   71.9995   -2.3040 O.3     1  UNL1       -0.3112
      5 C          20.4722   72.3052   -3.6062 C.3     1  UNL1        0.1811
      6 O          20.8261   70.8508   -5.4859 O.3     1  UNL1       -0.3308
      7 O          23.2725   72.4887   -6.0543 O.3     1  UNL1       -0.3794
      8 O          21.4687   73.4725   -7.8474 O.3     1  UNL1       -0.3779
      9 C          22.0064   72.9048   -5.5452 C.3     1  UNL1        0.1713
     10 C          20.9711   72.9097   -6.6505 C.3     1  UNL1        0.1895
     11 C          21.4859   71.8062   -4.6268 C.3     1  UNL1        0.1764
     12 C          20.6507   71.4311   -6.7887 C.3     1  UNL1        0.2383
     13 H          23.6251   73.1746   -6.6435 H       1  UNL1        0.2105
     14 H          21.6573   74.4137   -7.7084 H       1  UNL1        0.2106
     15 O          19.9078   69.5448   -8.7554 O.2     1  UNL1       -0.2464
     16 O          15.4460   70.6365   -8.3792 O.2     1  UNL1       -0.2670
     17 N          19.3019   71.2013   -7.2238 N.ar    1  UNL1       -0.2551
     18 N          17.6868   70.0898   -8.5663 N.ar    1  UNL1       -0.2743
     19 C          19.0362   70.2314   -8.2184 C.ar    1  UNL1        0.3323
     20 C          18.2595   71.9331   -6.6655 C.ar    1  UNL1        0.0869
     21 C          16.9782   71.7870   -7.0093 C.ar    1  UNL1        0.0795
     22 C          16.6151   70.7944   -8.0413 C.ar    1  UNL1        0.2626
     23 H          17.4778   69.4202   -9.2575 H       1  UNL1        0.1734
     24 O          22.3333   72.3295   -0.2170 O.3     1  UNL1       -0.2703
     25 P          21.6211   71.8132    1.1391 P.3     1  UNL1        0.2208
     26 O          21.9308   70.2252    1.1395 O.co2   1  UNL1       -0.4371
     27 O          20.1638   72.1599    1.2393 O.2     1  UNL1       -0.5170
     28 O          22.5333   72.4066    2.3311 O.3     1  UNL1       -0.2858
     29 O          21.4570   74.3346    3.1919 O.3     1  UNL1       -0.3258
     30 O          24.9312   74.4683    5.4197 O.3     1  UNL1       -0.3794
     31 O          22.4646   73.7149    6.6833 O.3     1  UNL1       -0.3794
     32 O          25.0268   73.6557    2.6430 O.3     1  UNL1       -0.3775
     33 C          23.8462   73.8368    4.7346 C.3     1  UNL1        0.1715
     34 C          22.5382   74.2940    5.3834 C.3     1  UNL1        0.1694
     35 C          23.8847   74.2386    3.2613 C.3     1  UNL1        0.1967
     36 C          21.3258   73.8737    4.5418 C.3     1  UNL1        0.1761
     37 C          22.6108   73.8161    2.5272 C.3     1  UNL1        0.2704
     38 H          24.9128   74.2169    6.3557 H       1  UNL1        0.2105
     39 H          23.2362   73.9877    7.2043 H       1  UNL1        0.2105
     40 H          25.8266   73.9309    3.1167 H       1  UNL1        0.2106
     41 O          18.9405   73.7346    4.5244 O.3     1  UNL1       -0.3794
     42 C          20.0225   74.4541    5.0866 C.3     1  UNL1        0.1693
     43 H          18.1044   74.0929    4.8624 H       1  UNL1        0.2105
@<TRIPOS>UNITY_ATOM_ATTR
2 1
charge -1
26 1
charge -1
@<TRIPOS>BOND
     1    25    28    1
     2    25    24    1
     3    25    26    1
     4    25    27    2
     5     1     4    1
     6     1    24    1
     7     1     2    1
     8     1     3    2
     9     6    11    1
    10     6    12    1
    11    29    36    1
    12    29    37    1
    13     7     9    1
    14     7    13    1
    15     8    10    1
    16     8    14    1
    17    28    37    1
    18     4     5    1
    19    30    33    1
    20    30    38    1
    21    31    34    1
    22    31    39    1
    23    32    35    1
    24    32    40    1
    25    41    42    1
    26    41    43    1
    27    15    19    2
    28    16    22    2
    29    17    12    1
    30    17    19   ar
    31    17    20   ar
    32    18    19   ar
    33    18    22   ar
    34    18    23    1
    35     9    10    1
    36     9    11    1
    37    10    12    1
    38    11     5    1
    39    33    34    1
    40    33    35    1
    41    34    36    1
    42    35    37    1
    43    36    42    1
    44    20    21   ar
    45    21    22   ar
@<TRIPOS>MOLECULE
*****
 43 45 0 0 0
SMALL
GASTEIGER

@<TRIPOS>ATOM
      1 P          23.5513   72.3637   -3.4220 P.3     1  UNL1        0.2189
      2 O          24.0743   70.8476   -3.2089 O.co2   1  UNL1       -0.4371
      3 O          24.6157   73.3557   -3.7883 O.2     1  UNL1       -0.5170
      4 O          22.7281   72.6847   -2.0665 O.3     1  UNL1       -0.3112
      5 C          23.4453   72.7912   -0.8491 C.3     1  UNL1        0.1811
      6 O          24.4978   71.2748    0.6892 O.3     1  UNL1       -0.3308
      7 O          21.7477   70.2081    1.2280 O.3     1  UNL1       -0.3794
      8 O          22.1865   71.8320    3.3744 O.3     1  UNL1       -0.3779
      9 C          22.1594   71.5475    0.9599 C.3     1  UNL1        0.1713
     10 C          22.8580   72.1348    2.1685 C.3     1  UNL1        0.1895
     11 C          23.2858   71.4961   -0.0647 C.3     1  UNL1        0.1764
     12 C          24.2299   71.4874    2.0849 C.3     1  UNL1        0.2383
     13 H          21.0286   70.2154    1.8797 H       1  UNL1        0.2105
     14 H          21.3194   72.2666    3.3797 H       1  UNL1        0.2106
     15 O          26.9083   70.6709    2.4555 O.2     1  UNL1       -0.2464
     16 O          28.1043   74.7607    4.2116 O.2     1  UNL1       -0.2670
     17 N          25.2623   72.3187    2.6366 N.ar    1  UNL1       -0.2551
     18 N          27.5017   72.7080    3.3294 N.ar    1  UNL1       -0.2743
     19 C          26.5749   71.8121    2.7813 C.ar    1  UNL1        0.3323
     20 C          24.9690   73.6207    3.0271 C.ar    1  UNL1        0.0869
     21 C          25.8639   74.4620    3.5493 C.ar    1  UNL1        0.0795
     22 C          27.2583   74.0110    3.7341 C.ar    1  UNL1        0.2626
     23 H          28.4225   72.3769    3.4400 H       1  UNL1        0.1734
     24 O          22.3822   72.1931   -4.5253 O.3     1  UNL1       -0.2703
     25 P          21.8319   73.2103   -5.6547 P.3     1  UNL1        0.2208
     26 O          22.8912   73.0300   -6.8642 O.co2   1  UNL1       -0.4371
     27 O          21.6678   74.6254   -5.1810 O.2     1  UNL1       -0.5170
     28 O          20.4748   72.5244   -6.1957 O.3     1  UNL1       -0.2858
     29 O          19.5719   70.3493   -5.9311 O.3     1  UNL1       -0.3258
     30 O          18.6022   70.9885   -9.8937 O.3     1  UNL1       -0.3794
     31 O          16.5336   71.0368   -7.9021 O.3     1  UNL1       -0.3794
     32 O          21.1361   71.9293   -8.8573 O.3     1  UNL1       -0.3775
     33 C          18.8192   71.3585   -8.5293 C.3     1  UNL1        0.1715
     34 C          17.8523   70.5569   -7.6555 C.3     1  UNL1        0.1694
     35 C          20.2669   71.0494   -8.1525 C.3     1  UNL1        0.1967
     36 C          18.2030   70.6980   -6.1682 C.3     1  UNL1        0.1761
     37 C          20.4966   71.1720   -6.6451 C.3     1  UNL1        0.2704
     38 H          17.6850   71.1827  -10.1395 H       1  UNL1        0.2105
     39 H          16.3249   70.9425   -8.8449 H       1  UNL1        0.2105
     40 H          20.9811   71.8420   -9.8103 H       1  UNL1        0.2106
     41 O          16.1020   69.5860   -5.9267 O.3     1  UNL1       -0.3794
     42 C          17.3512   69.7835   -5.2905 C.3     1  UNL1        0.1693
     43 H          15.5493   69.0055   -5.3796 H       1  UNL1        0.2105
@<TRIPOS>UNITY_ATOM_ATTR
2 1
charge -1
26 1
charge -1
@<TRIPOS>BOND
     1    25    28    1
     2    25    24    1
     3    25    26    1
     4    25    27    2
     5     1     4    1
     6     1    24    1
     7     1     2    1
     8     1     3    2
     9     6    11    1
    10     6    12    1
    11    29    36    1
    12    29    37    1
    13     7     9    1
    14     7    13    1
    15     8    10    1
    16     8    14    1
    17    28    37    1
    18     4     5    1
    19    30    33    1
    20    30    38    1
    21    31    34    1
    22    31    39    1
    23    32    35    1
    24    32    40    1
    25    41    42    1
    26    41    43    1
    27    15    19    2
    28    16    22    2
    29    17    12    1
    30    17    19   ar
    31    17    20   ar
    32    18    19   ar
    33    18    22   ar
    34    18    23    1
    35     9    10    1
    36     9    11    1
    37    10    12    1
    38    11     5    1
    39    33    34    1
    40    33    35    1
    41    34    36    1
    42    35    37    1
    43    36    42    1
    44    20    21   ar
    45    21    22   ar
@<TRIPOS>MOLECULE
*****
 43 45 0 0 0
SMALL
GASTEIGER

@<TRIPOS>ATOM
      1 P          21.8054   72.4920   -5.5637 P.3     1  UNL1        0.2189
      2 O          21.1594   73.9564   -5.3280 O.co2   1  UNL1       -0.4371
      3 O          23.0533   72.4763   -6.3967 O.2     1  UNL1       -0.5170
      4 O          20.5723   71.6098   -6.1287 O.3     1  UNL1       -0.3112
      5 C          19.9993   71.9684   -7.3741 C.3     1  UNL1        0.1811
      6 O          18.7241   69.9793   -6.9369 O.3     1  UNL1       -0.3308
      7 O          18.0887   69.9677   -9.8672 O.3     1  UNL1       -0.3794
      8 O          15.8194   71.0094   -8.7709 O.3     1  UNL1       -0.3779
      9 C          18.2406   71.0756   -8.9813 C.3     1  UNL1        0.1713
     10 C          17.0344   71.1919   -8.0730 C.3     1  UNL1        0.1895
     11 C          19.3509   70.7382   -7.9940 C.3     1  UNL1        0.1764
     12 C          17.2968   70.0920   -7.0584 C.3     1  UNL1        0.2383
     13 H          17.3851   70.1600  -10.5074 H       1  UNL1        0.2105
     14 H          15.6979   71.7341   -9.4040 H       1  UNL1        0.2106
     15 O          16.5373   68.1476   -5.1557 O.2     1  UNL1       -0.2464
     16 O          15.1753   71.3605   -2.1452 O.2     1  UNL1       -0.2670
     17 N          16.7413   70.3924   -5.7690 N.ar    1  UNL1       -0.2551
     18 N          15.8599   69.7489   -3.6582 N.ar    1  UNL1       -0.2743
     19 C          16.3924   69.3422   -4.8883 C.ar    1  UNL1        0.3323
     20 C          16.5479   71.7161   -5.3891 C.ar    1  UNL1        0.0869
     21 C          16.0377   72.0872   -4.2130 C.ar    1  UNL1        0.0795
     22 C          15.6472   71.0514   -3.2350 C.ar    1  UNL1        0.2626
     23 H          15.6092   69.0344   -3.0286 H       1  UNL1        0.1734
     24 O          21.9937   71.9314   -4.0593 O.3     1  UNL1       -0.2703
     25 P          23.2460   72.0232   -3.0412 P.3     1  UNL1        0.2208
     26 O          23.9003   73.4620   -3.3867 O.co2   1  UNL1       -0.4371
     27 O          24.2019   70.8694   -3.1359 O.2     1  UNL1       -0.5170
     28 O          22.5759   72.2190   -1.5860 O.3     1  UNL1       -0.2858
     29 O          23.4758   70.6618   -0.0427 O.3     1  UNL1       -0.3258
     30 O          20.4606   72.2405    2.2953 O.3     1  UNL1       -0.3794
     31 O          23.1944   72.9125    2.8631 O.3     1  UNL1       -0.3794
     32 O          20.0122   71.7897   -0.5287 O.3     1  UNL1       -0.3775
     33 C          21.4946   72.2701    1.3078 C.3     1  UNL1        0.1715
     34 C          22.8091   71.8648    1.9776 C.3     1  UNL1        0.1694
     35 C          21.1407   71.2966    0.1851 C.3     1  UNL1        0.1967
     36 C          23.9077   71.6146    0.9357 C.3     1  UNL1        0.1761
     37 C          22.3180   71.0811   -0.7676 C.3     1  UNL1        0.2704
     38 H          20.6789   72.8568    3.0108 H       1  UNL1        0.2105
     39 H          22.4920   73.0607    3.5156 H       1  UNL1        0.2105
     40 H          19.2737   71.9217    0.0854 H       1  UNL1        0.2106
     41 O          24.8140   70.1836    2.6208 O.3     1  UNL1       -0.3794
     42 C          25.1807   71.0577    1.5692 C.3     1  UNL1        0.1693
     43 H          25.6143   69.8213    3.0331 H       1  UNL1        0.2105
@<TRIPOS>UNITY_ATOM_ATTR
2 1
charge -1
26 1
charge -1
@<TRIPOS>BOND
     1    25    28    1
     2    25    24    1
     3    25    26    1
     4    25    27    2
     5     1     4    1
     6     1    24    1
     7     1     2    1
     8     1     3    2
     9     6    11    1
    10     6    12    1
    11    29    36    1
    12    29    37    1
    13     7     9    1
    14     7    13    1
    15     8    10    1
    16     8    14    1
    17    28    37    1
    18     4     5    1
    19    30    33    1
    20    30    38    1
    21    31    34    1
    22    31    39    1
    23    32    35    1
    24    32    40    1
    25    41    42    1
    26    41    43    1
    27    15    19    2
    28    16    22    2
    29    17    12    1
    30    17    19   ar
    31    17    20   ar
    32    18    19   ar
    33    18    22   ar
    34    18    23    1
    35     9    10    1
    36     9    11    1
    37    10    12    1
    38    11     5    1
    39    33    34    1
    40    33    35    1
    41    34    36    1
    42    35    37    1
    43    36    42    1
    44    20    21   ar
    45    21    22   ar
@<TRIPOS>MOLECULE
*****
 43 45 0 0 0
SMALL
GASTEIGER

@<TRIPOS>ATOM
      1 P          20.6464   70.9885   -2.7783 P.3     1  UNL1        0.2189
      2 O          22.1289   70.6549   -3.3337 O.co2   1  UNL1       -0.4371
      3 O          20.1571   72.3763   -3.0719 O.2     1  UNL1       -0.5170
      4 O          20.7182   70.5853   -1.2130 O.3     1  UNL1       -0.3112
      5 C          21.7611   71.1281   -0.4221 C.3     1  UNL1        0.1811
      6 O          22.1900   71.0525    1.9409 O.3     1  UNL1       -0.3308
      7 O          20.0302   73.1150    2.2094 O.3     1  UNL1       -0.3794
      8 O          22.3045   74.6082    2.3951 O.3     1  UNL1       -0.3779
      9 C          21.0020   72.9554    1.1772 C.3     1  UNL1        0.1713
     10 C          22.3651   73.3998    1.6652 C.3     1  UNL1        0.1895
     11 C          21.2136   71.4625    0.9587 C.3     1  UNL1        0.1764
     12 C          22.7931   72.2203    2.5218 C.3     1  UNL1        0.2383
     13 H          19.8781   74.0605    2.3666 H       1  UNL1        0.2105
     14 H          22.0279   75.3280    1.8067 H       1  UNL1        0.2106
     15 O          24.1377   69.9325    1.5542 O.2     1  UNL1       -0.2464
     16 O          28.2634   71.6662    2.6562 O.2     1  UNL1       -0.2670
     17 N          24.2182   72.0474    2.5431 N.ar    1  UNL1       -0.2551
     18 N          26.1909   70.7977    2.1035 N.ar    1  UNL1       -0.2743
     19 C          24.7933   70.8600    2.0333 C.ar    1  UNL1        0.3323
     20 C          25.0300   73.0487    3.0650 C.ar    1  UNL1        0.0869
     21 C          26.3611   72.9732    3.1259 C.ar    1  UNL1        0.0795
     22 C          27.0410   71.7658    2.6142 C.ar    1  UNL1        0.2626
     23 H          26.6137   69.9796    1.7546 H       1  UNL1        0.1734
     24 O          19.7451   69.8083   -3.4166 O.3     1  UNL1       -0.2703
     25 P          18.1422   69.6561   -3.5600 P.3     1  UNL1        0.2208
     26 O          17.5752   70.9612   -2.7900 O.co2   1  UNL1       -0.4371
     27 O          17.5998   68.3522   -3.0505 O.2     1  UNL1       -0.5170
     28 O          17.8427   69.9411   -5.1201 O.3     1  UNL1       -0.2858
     29 O          19.1378   71.4222   -6.4413 O.3     1  UNL1       -0.3258
     30 O          15.5728   71.6348   -8.5141 O.3     1  UNL1       -0.3794
     31 O          17.7949   70.2187   -9.6565 O.3     1  UNL1       -0.3794
     32 O          15.5557   71.4875   -5.6232 O.3     1  UNL1       -0.3775
     33 C          16.5945   70.9995   -7.7407 C.3     1  UNL1        0.1715
     34 C          17.9065   71.0762   -8.5240 C.3     1  UNL1        0.1694
     35 C          16.7259   71.7194   -6.3999 C.3     1  UNL1        0.1967
     36 C          19.0977   70.6575   -7.6518 C.3     1  UNL1        0.1761
     37 C          17.9694   71.2644   -5.6340 C.3     1  UNL1        0.2704
     38 H          15.4840   71.1821   -9.3666 H       1  UNL1        0.2105
     39 H          17.0388   70.4936  -10.1985 H       1  UNL1        0.2105
     40 H          14.7755   71.7800   -6.1188 H       1  UNL1        0.2106
     41 O          20.7906   72.2399   -8.2339 O.3     1  UNL1       -0.3794
     42 C          20.4316   70.8764   -8.3623 C.3     1  UNL1        0.1693
     43 H          21.6379   72.3939   -8.6812 H       1  UNL1        0.2105
@<TRIPOS>UNITY_ATOM_ATTR
2 1
charge -1
26 1
charge -1
@<TRIPOS>BOND
     1    25    28    1
     2    25    24    1
     3    25    26    1
     4    25    27    2
     5     1     4    1
     6     1    24    1
     7     1     2    1
     8     1     3    2
     9     6    11    1
    10     6    12    1
    11    29    36    1
    12    29    37    1
    13     7     9    1
    14     7    13    1
    15     8    10    1
    16     8    14    1
    17    28    37    1
    18     4     5    1
    19    30    33    1
    20    30    38    1
    21    31    34    1
    22    31    39    1
    23    32    35    1
    24    32    40    1
    25    41    42    1
    26    41    43    1
    27    15    19    2
    28    16    22    2
    29    17    12    1
    30    17    19   ar
    31    17    20   ar
    32    18    19   ar
    33    18    22   ar
    34    18    23    1
    35     9    10    1
    36     9    11    1
    37    10    12    1
    38    11     5    1
    39    33    34    1
    40    33    35    1
    41    34    36    1
    42    35    37    1
    43    36    42    1
    44    20    21   ar
    45    21    22   ar
