@<TRIPOS>MOLECULE
*****
 43 45 0 0 0
SMALL
GASTEIGER

@<TRIPOS>ATOM
      1 P          20.6188   71.2905   -1.6798 P.3     1  UNL1        0.2189
      2 O          21.1097   70.3634   -2.9115 O.co2   1  UNL1       -0.4371
      3 O          20.4052   70.5631   -0.3850 O.2     1  UNL1       -0.5170
      4 O          19.3288   72.0689   -2.2697 O.3     1  UNL1       -0.3112
      5 C          19.0134   71.9116   -3.6421 C.3     1  UNL1        0.1811
      6 O          17.1419   71.9048   -5.1491 O.3     1  UNL1       -0.3308
      7 O          15.7676   70.1571   -3.1373 O.3     1  UNL1       -0.3794
      8 O          16.5931   68.3630   -5.0179 O.3     1  UNL1       -0.3779
      9 C          17.1436   70.1911   -3.5124 C.3     1  UNL1        0.1713
     10 C          17.3328   69.5585   -4.8754 C.3     1  UNL1        0.1895
     11 C          17.5212   71.6426   -3.7803 C.3     1  UNL1        0.1764
     12 C          16.8491   70.6596   -5.8037 C.3     1  UNL1        0.2383
     13 H          15.5033   69.2400   -2.9608 H       1  UNL1        0.2105
     14 H          16.9387   67.6939   -4.4067 H       1  UNL1        0.2106
     15 O          15.5214   70.6194   -8.2964 O.2     1  UNL1       -0.2464
     16 O          19.5003   70.5616  -10.6215 O.2     1  UNL1       -0.2670
     17 N          17.5134   70.6342   -7.0763 N.ar    1  UNL1       -0.2551
     18 N          17.5036   70.5908   -9.4521 N.ar    1  UNL1       -0.2743
     19 C          16.7538   70.6145   -8.2692 C.ar    1  UNL1        0.3323
     20 C          18.9029   70.6295   -7.1327 C.ar    1  UNL1        0.0869
     21 C          19.6028   70.6056   -8.2688 C.ar    1  UNL1        0.0795
     22 C          18.8853   70.5839   -9.5598 C.ar    1  UNL1        0.2626
     23 H          16.9957   70.5764  -10.2956 H       1  UNL1        0.1734
     24 O          21.7466   72.4472   -1.6235 O.3     1  UNL1       -0.2703
     25 P          23.1586   72.5158   -0.8396 P.3     1  UNL1        0.2208
     26 O          23.8734   73.8202   -1.4761 O.co2   1  UNL1       -0.4371
     27 O          23.9735   71.2580   -0.9284 O.2     1  UNL1       -0.5170
     28 O          22.7703   72.9564    0.6637 O.3     1  UNL1       -0.2858
     29 O          24.3450   72.3282    2.3196 O.3     1  UNL1       -0.3258
     30 O          21.1711   73.3171    4.7688 O.3     1  UNL1       -0.3794
     31 O          23.4554   75.0527    4.6378 O.3     1  UNL1       -0.3794
     32 O          20.6893   71.9571    2.2593 O.3     1  UNL1       -0.3775
     33 C          22.0175   73.4337    3.6220 C.3     1  UNL1        0.1715
     34 C          23.4388   73.7320    4.1033 C.3     1  UNL1        0.1694
     35 C          21.9793   72.1233    2.8380 C.3     1  UNL1        0.1967
     36 C          24.4499   73.6073    2.9556 C.3     1  UNL1        0.1761
     37 C          23.0565   72.0827    1.7527 C.3     1  UNL1        0.2704
     38 H          21.1905   74.1461    5.2708 H       1  UNL1        0.2105
     39 H          22.8123   75.1182    5.3612 H       1  UNL1        0.2105
     40 H          20.0163   71.9843    2.9565 H       1  UNL1        0.2106
     41 O          26.4722   74.8721    2.8150 O.3     1  UNL1       -0.3794
     42 C          25.8900   73.7456    3.4446 C.3     1  UNL1        0.1693
     43 H          27.3889   74.9727    3.1170 H       1  UNL1        0.2105
@<TRIPOS>UNITY_ATOM_ATTR
2 1
charge -1
26 1
charge -1
@<TRIPOS>BOND
     1    25    28    1
     2    25    24    1
     3    25    26    1
     4    25    27    2
     5     1     4    1
     6     1    24    1
     7     1     2    1
     8     1     3    2
     9     6    11    1
    10     6    12    1
    11    29    36    1
    12    29    37    1
    13     7     9    1
    14     7    13    1
    15     8    10    1
    16     8    14    1
    17    28    37    1
    18     4     5    1
    19    30    33    1
    20    30    38    1
    21    31    34    1
    22    31    39    1
    23    32    35    1
    24    32    40    1
    25    41    42    1
    26    41    43    1
    27    15    19    2
    28    16    22    2
    29    17    12    1
    30    17    19   ar
    31    17    20   ar
    32    18    19   ar
    33    18    22   ar
    34    18    23    1
    35     9    10    1
    36     9    11    1
    37    10    12    1
    38    11     5    1
    39    33    34    1
    40    33    35    1
    41    34    36    1
    42    35    37    1
    43    36    42    1
    44    20    21   ar
    45    21    22   ar
@<TRIPOS>MOLECULE
*****
 43 45 0 0 0
SMALL
GASTEIGER

@<TRIPOS>ATOM
      1 P          21.3730   72.3575   -4.7289 P.3     1  UNL1        0.2189
      2 O          20.9565   73.9071   -4.5224 O.co2   1  UNL1       -0.4371
      3 O          22.3442   72.1056   -5.8445 O.2     1  UNL1       -0.5170
      4 O          19.9553   71.5863   -4.8440 O.3     1  UNL1       -0.3112
      5 C          19.3416   71.1186   -3.6555 C.3     1  UNL1        0.1811
      6 O          17.5388   71.7522   -5.1123 O.3     1  UNL1       -0.3308
      7 O          15.7363   70.3015   -3.2052 O.3     1  UNL1       -0.3794
      8 O          16.0236   68.5039   -5.2357 O.3     1  UNL1       -0.3779
      9 C          17.0662   69.9812   -3.6103 C.3     1  UNL1        0.1713
     10 C          17.0680   69.4313   -5.0214 C.3     1  UNL1        0.1895
     11 C          17.8333   71.2871   -3.7769 C.3     1  UNL1        0.1764
     12 C          16.9085   70.6936   -5.8517 C.3     1  UNL1        0.2383
     13 H          15.2270   69.4831   -3.0921 H       1  UNL1        0.2105
     14 H          16.1703   67.7187   -4.6855 H       1  UNL1        0.2106
     15 O          15.5241   70.7574   -8.3129 O.2     1  UNL1       -0.2464
     16 O          19.4200   70.2693  -10.7263 O.2     1  UNL1       -0.2670
     17 N          17.5361   70.5857   -7.1385 N.ar    1  UNL1       -0.2551
     18 N          17.4651   70.5145   -9.5126 N.ar    1  UNL1       -0.2743
     19 C          16.7500   70.6282   -8.3135 C.ar    1  UNL1        0.3323
     20 C          18.9163   70.4399   -7.2262 C.ar    1  UNL1        0.0869
     21 C          19.5829   70.3315   -8.3774 C.ar    1  UNL1        0.0795
     22 C          18.8361   70.3666   -9.6514 C.ar    1  UNL1        0.2626
     23 H          16.9382   70.5412  -10.3441 H       1  UNL1        0.1734
     24 O          21.9038   71.9255   -3.2644 O.3     1  UNL1       -0.2703
     25 P          23.3886   71.9431   -2.6257 P.3     1  UNL1        0.2208
     26 O          23.9802   73.3718   -3.1013 O.co2   1  UNL1       -0.4371
     27 O          24.2362   70.7640   -3.0066 O.2     1  UNL1       -0.5170
     28 O          23.1485   72.1093   -1.0384 O.3     1  UNL1       -0.2858
     29 O          23.8973   70.6151    0.6418 O.3     1  UNL1       -0.3258
     30 O          20.5011   72.0501    2.5011 O.3     1  UNL1       -0.3794
     31 O          23.0872   72.8716    3.4419 O.3     1  UNL1       -0.3794
     32 O          20.4854   71.5528   -0.3505 O.3     1  UNL1       -0.3775
     33 C          21.6629   72.1266    1.6707 C.3     1  UNL1        0.1715
     34 C          22.8871   71.7975    2.5273 C.3     1  UNL1        0.1694
     35 C          21.5240   71.1264    0.5245 C.3     1  UNL1        0.1967
     36 C          24.1350   71.5977    1.6566 C.3     1  UNL1        0.1761
     37 C          22.8351   70.9661   -0.2472 C.3     1  UNL1        0.2704
     38 H          20.5827   72.6831    3.2306 H       1  UNL1        0.2105
     39 H          22.2919   72.9875    3.9853 H       1  UNL1        0.2105
     40 H          19.6608   71.6502    0.1499 H       1  UNL1        0.2106
     41 O          26.3465   70.6963    1.5801 O.3     1  UNL1       -0.3794
     42 C          25.3312   71.1146    2.4738 C.3     1  UNL1        0.1693
     43 H          27.1143   70.3865    2.0862 H       1  UNL1        0.2105
@<TRIPOS>UNITY_ATOM_ATTR
2 1
charge -1
26 1
charge -1
@<TRIPOS>BOND
     1    25    28    1
     2    25    24    1
     3    25    26    1
     4    25    27    2
     5     1     4    1
     6     1    24    1
     7     1     2    1
     8     1     3    2
     9     6    11    1
    10     6    12    1
    11    29    36    1
    12    29    37    1
    13     7     9    1
    14     7    13    1
    15     8    10    1
    16     8    14    1
    17    28    37    1
    18     4     5    1
    19    30    33    1
    20    30    38    1
    21    31    34    1
    22    31    39    1
    23    32    35    1
    24    32    40    1
    25    41    42    1
    26    41    43    1
    27    15    19    2
    28    16    22    2
    29    17    12    1
    30    17    19   ar
    31    17    20   ar
    32    18    19   ar
    33    18    22   ar
    34    18    23    1
    35     9    10    1
    36     9    11    1
    37    10    12    1
    38    11     5    1
    39    33    34    1
    40    33    35    1
    41    34    36    1
    42    35    37    1
    43    36    42    1
    44    20    21   ar
    45    21    22   ar
@<TRIPOS>MOLECULE
*****
 43 45 0 0 0
SMALL
GASTEIGER

@<TRIPOS>ATOM
      1 P          20.5527   71.3407   -1.7042 P.3     1  UNL1        0.2189
      2 O          20.8438   70.3500   -2.9496 O.co2   1  UNL1       -0.4371
      3 O          20.5772   70.6860   -0.3543 O.2     1  UNL1       -0.5170
      4 O          19.1663   72.0720   -2.1054 O.3     1  UNL1       -0.3112
      5 C          18.8043   72.1309   -3.4741 C.3     1  UNL1        0.1811
      6 O          16.9576   71.9165   -4.9963 O.3     1  UNL1       -0.3308
      7 O          15.7377   70.0805   -2.9636 O.3     1  UNL1       -0.3794
      8 O          16.7513   68.3412   -4.8032 O.3     1  UNL1       -0.3779
      9 C          17.1078   70.2405   -3.3278 C.3     1  UNL1        0.1713
     10 C          17.3710   69.6049   -4.6770 C.3     1  UNL1        0.1895
     11 C          17.3465   71.7167   -3.6197 C.3     1  UNL1        0.1764
     12 C          16.7928   70.6373   -5.6298 C.3     1  UNL1        0.2383
     13 H          15.5613   69.1455   -2.7722 H       1  UNL1        0.2105
     14 H          17.1537   67.7196   -4.1767 H       1  UNL1        0.2106
     15 O          15.4901   70.5969   -8.1357 O.2     1  UNL1       -0.2464
     16 O          19.4903   70.7007  -10.4224 O.2     1  UNL1       -0.2670
     17 N          17.4693   70.6535   -6.8961 N.ar    1  UNL1       -0.2551
     18 N          17.4829   70.6488   -9.2723 N.ar    1  UNL1       -0.2743
     19 C          16.7218   70.6297   -8.0965 C.ar    1  UNL1        0.3323
     20 C          18.8588   70.6928   -6.9390 C.ar    1  UNL1        0.0869
     21 C          19.5696   70.7093   -8.0684 C.ar    1  UNL1        0.0795
     22 C          18.8651   70.6865   -9.3666 C.ar    1  UNL1        0.2626
     23 H          16.9836   70.6324  -10.1209 H       1  UNL1        0.1734
     24 O          21.6512   72.5094   -1.9050 O.3     1  UNL1       -0.2703
     25 P          23.2463   72.4351   -2.1566 P.3     1  UNL1        0.2208
     26 O          23.4230   73.1064   -3.6180 O.co2   1  UNL1       -0.4371
     27 O          23.8248   71.0552   -2.0349 O.2     1  UNL1       -0.5170
     28 O          23.8720   73.5153   -1.1336 O.3     1  UNL1       -0.2858
     29 O          23.0238   72.7719    0.9508 O.3     1  UNL1       -0.3258
     30 O          25.4738   75.8169    2.2836 O.3     1  UNL1       -0.3794
     31 O          26.2424   73.0844    2.7204 O.3     1  UNL1       -0.3794
     32 O          23.9609   76.1466   -0.1622 O.3     1  UNL1       -0.3775
     33 C          25.0854   74.7349    1.4328 C.3     1  UNL1        0.1715
     34 C          24.9415   73.4771    2.2919 C.3     1  UNL1        0.1694
     35 C          23.7585   75.0809    0.7596 C.3     1  UNL1        0.1967
     36 C          24.2728   72.3421    1.5047 C.3     1  UNL1        0.1761
     37 C          23.1547   73.8700    0.0459 C.3     1  UNL1        0.2704
     38 H          26.3158   75.6038    2.7138 H       1  UNL1        0.2105
     39 H          26.6538   73.8101    3.2157 H       1  UNL1        0.2105
     40 H          24.3432   76.9071    0.3019 H       1  UNL1        0.2106
     41 O          25.0765   70.2431    2.3154 O.3     1  UNL1       -0.3794
     42 C          23.9765   71.1314    2.3871 C.3     1  UNL1        0.1693
     43 H          24.9020   69.4678    2.8725 H       1  UNL1        0.2105
@<TRIPOS>UNITY_ATOM_ATTR
2 1
charge -1
26 1
charge -1
@<TRIPOS>BOND
     1    25    28    1
     2    25    24    1
     3    25    26    1
     4    25    27    2
     5     1     4    1
     6     1    24    1
     7     1     2    1
     8     1     3    2
     9     6    11    1
    10     6    12    1
    11    29    36    1
    12    29    37    1
    13     7     9    1
    14     7    13    1
    15     8    10    1
    16     8    14    1
    17    28    37    1
    18     4     5    1
    19    30    33    1
    20    30    38    1
    21    31    34    1
    22    31    39    1
    23    32    35    1
    24    32    40    1
    25    41    42    1
    26    41    43    1
    27    15    19    2
    28    16    22    2
    29    17    12    1
    30    17    19   ar
    31    17    20   ar
    32    18    19   ar
    33    18    22   ar
    34    18    23    1
    35     9    10    1
    36     9    11    1
    37    10    12    1
    38    11     5    1
    39    33    34    1
    40    33    35    1
    41    34    36    1
    42    35    37    1
    43    36    42    1
    44    20    21   ar
    45    21    22   ar
@<TRIPOS>MOLECULE
*****
 43 45 0 0 0
SMALL
GASTEIGER

@<TRIPOS>ATOM
      1 P          23.5040   73.5774   -4.1636 P.3     1  UNL1        0.2189
      2 O          22.7364   74.9864   -4.3709 O.co2   1  UNL1       -0.4371
      3 O          24.9964   73.6799   -4.0468 O.2     1  UNL1       -0.5170
      4 O          22.9557   72.6546   -5.3742 O.3     1  UNL1       -0.3112
      5 C          21.6033   72.2326   -5.3436 C.3     1  UNL1        0.1811
      6 O          20.4885   70.3280   -6.2942 O.3     1  UNL1       -0.3308
      7 O          20.6751   71.7644   -8.9196 O.3     1  UNL1       -0.3794
      8 O          18.0920   72.2213   -8.1745 O.3     1  UNL1       -0.3779
      9 C          20.4567   72.2961   -7.6139 C.3     1  UNL1        0.1713
     10 C          19.0445   71.9987   -7.1546 C.3     1  UNL1        0.1895
     11 C          21.2889   71.4824   -6.6307 C.3     1  UNL1        0.1764
     12 C          19.1440   70.5359   -6.7568 C.3     1  UNL1        0.2383
     13 H          20.1541   72.2683   -9.5651 H       1  UNL1        0.2105
     14 H          18.0661   73.1661   -8.3922 H       1  UNL1        0.2106
     15 O          16.4425   69.8172   -7.1606 O.2     1  UNL1       -0.2464
     16 O          15.7316   69.2346   -2.6444 O.2     1  UNL1       -0.2670
     17 N          18.2303   70.1912   -5.7043 N.ar    1  UNL1       -0.2551
     18 N          16.0908   69.5275   -4.9116 N.ar    1  UNL1       -0.2743
     19 C          16.8941   69.8461   -6.0139 C.ar    1  UNL1        0.3323
     20 C          18.6618   70.1972   -4.3823 C.ar    1  UNL1        0.0869
     21 C          17.8829   69.8921   -3.3424 C.ar    1  UNL1        0.0795
     22 C          16.4731   69.5203   -3.5795 C.ar    1  UNL1        0.2626
     23 H          15.1559   69.2843   -5.1031 H       1  UNL1        0.1734
     24 O          22.7692   72.9506   -2.8674 O.3     1  UNL1       -0.2703
     25 P          22.8931   71.4939   -2.1778 P.3     1  UNL1        0.2208
     26 O          24.2095   70.8636   -2.8760 O.co2   1  UNL1       -0.4371
     27 O          21.6600   70.6468   -2.3031 O.2     1  UNL1       -0.5170
     28 O          23.3439   71.7982   -0.6582 O.3     1  UNL1       -0.2858
     29 O          24.5412   70.6807    1.0547 O.3     1  UNL1       -0.3258
     30 O          21.2522   71.8976    3.2347 O.3     1  UNL1       -0.3794
     31 O          23.7834   73.1907    3.6460 O.3     1  UNL1       -0.3794
     32 O          20.9208   70.9920    0.5053 O.3     1  UNL1       -0.3775
     33 C          22.2620   72.0090    2.2282 C.3     1  UNL1        0.1715
     34 C          23.6289   71.9775    2.9147 C.3     1  UNL1        0.1694
     35 C          22.1240   70.8427    1.2514 C.3     1  UNL1        0.1967
     36 C          24.7604   71.8239    1.8894 C.3     1  UNL1        0.1761
     37 C          23.3248   70.7508    0.3081 C.3     1  UNL1        0.2704
     38 H          21.3340   72.6354    3.8580 H       1  UNL1        0.2105
     39 H          23.0624   73.2757    4.2895 H       1  UNL1        0.2105
     40 H          20.1682   71.0487    1.1138 H       1  UNL1        0.2106
     41 O          26.6117   72.9014    2.9481 O.3     1  UNL1       -0.3794
     42 C          26.1185   71.6320    2.5609 C.3     1  UNL1        0.1693
     43 H          27.4756   72.7948    3.3772 H       1  UNL1        0.2105
@<TRIPOS>UNITY_ATOM_ATTR
2 1
charge -1
26 1
charge -1
@<TRIPOS>BOND
     1    25    28    1
     2    25    24    1
     3    25    26    1
     4    25    27    2
     5     1     4    1
     6     1    24    1
     7     1     2    1
     8     1     3    2
     9     6    11    1
    10     6    12    1
    11    29    36    1
    12    29    37    1
    13     7     9    1
    14     7    13    1
    15     8    10    1
    16     8    14    1
    17    28    37    1
    18     4     5    1
    19    30    33    1
    20    30    38    1
    21    31    34    1
    22    31    39    1
    23    32    35    1
    24    32    40    1
    25    41    42    1
    26    41    43    1
    27    15    19    2
    28    16    22    2
    29    17    12    1
    30    17    19   ar
    31    17    20   ar
    32    18    19   ar
    33    18    22   ar
    34    18    23    1
    35     9    10    1
    36     9    11    1
    37    10    12    1
    38    11     5    1
    39    33    34    1
    40    33    35    1
    41    34    36    1
    42    35    37    1
    43    36    42    1
    44    20    21   ar
    45    21    22   ar
@<TRIPOS>MOLECULE
*****
 43 45 0 0 0
SMALL
GASTEIGER

@<TRIPOS>ATOM
      1 P          20.8470   71.5230   -1.5807 P.3     1  UNL1        0.2189
      2 O          21.6267   71.0081   -0.2599 O.co2   1  UNL1       -0.4371
      3 O          20.0682   72.7930   -1.4022 O.2     1  UNL1       -0.5170
      4 O          19.9907   70.2341   -2.0534 O.3     1  UNL1       -0.3112
      5 C          19.5226   70.1865   -3.3900 C.3     1  UNL1        0.1811
      6 O          17.8245   71.3504   -4.6292 O.3     1  UNL1       -0.3308
      7 O          15.8392   69.8499   -2.9565 O.3     1  UNL1       -0.3794
      8 O          15.8222   68.4508   -5.2972 O.3     1  UNL1       -0.3779
      9 C          17.0989   69.4167   -3.4673 C.3     1  UNL1        0.1713
     10 C          17.0001   69.1525   -4.9552 C.3     1  UNL1        0.1895
     11 C          18.0575   70.5999   -3.4173 C.3     1  UNL1        0.1764
     12 C          17.0296   70.5594   -5.5277 C.3     1  UNL1        0.2383
     13 H          15.2103   69.1110   -2.9781 H       1  UNL1        0.2105
     14 H          15.8511   67.5621   -4.9099 H       1  UNL1        0.2106
     15 O          15.5961   70.2157   -7.9370 O.2     1  UNL1       -0.2464
     16 O          19.3956   70.7573  -10.4888 O.2     1  UNL1       -0.2670
     17 N          17.6191   70.6061   -6.8361 N.ar    1  UNL1       -0.2551
     18 N          17.4891   70.4858   -9.2057 N.ar    1  UNL1       -0.2743
     19 C          16.8109   70.4201   -7.9818 C.ar    1  UNL1        0.3323
     20 C          18.9839   70.8347   -6.9734 C.ar    1  UNL1        0.0869
     21 C          19.6155   70.8932   -8.1477 C.ar    1  UNL1        0.0795
     22 C          18.8438   70.7092   -9.3938 C.ar    1  UNL1        0.2626
     23 H          16.9465   70.3588  -10.0176 H       1  UNL1        0.1734
     24 O          22.0220   71.6044   -2.6878 O.3     1  UNL1       -0.2703
     25 P          23.0377   72.8019   -3.0718 P.3     1  UNL1        0.2208
     26 O          24.1066   72.0824   -4.0502 O.co2   1  UNL1       -0.4371
     27 O          23.6495   73.4932   -1.8878 O.2     1  UNL1       -0.5170
     28 O          22.1825   73.7675   -4.0419 O.3     1  UNL1       -0.2858
     29 O          19.9604   73.4048   -4.7817 O.3     1  UNL1       -0.3258
     30 O          21.4108   75.4817   -8.0427 O.3     1  UNL1       -0.3794
     31 O          19.5731   76.7650   -6.2472 O.3     1  UNL1       -0.3794
     32 O          23.0996   73.5615   -6.6861 O.3     1  UNL1       -0.3775
     33 C          21.2909   75.1517   -6.6563 C.3     1  UNL1        0.1715
     34 C          19.8350   75.3644   -6.2369 C.3     1  UNL1        0.1694
     35 C          21.7017   73.6946   -6.4526 C.3     1  UNL1        0.1967
     36 C          19.5693   74.7814   -4.8424 C.3     1  UNL1        0.1761
     37 C          21.3491   73.1994   -5.0488 C.3     1  UNL1        0.2704
     38 H          21.1519   76.4057   -8.1788 H       1  UNL1        0.2105
     39 H          19.7451   77.1208   -7.1332 H       1  UNL1        0.2105
     40 H          23.3099   73.8780   -7.5780 H       1  UNL1        0.2106
     41 O          17.8967   74.1062   -3.2755 O.3     1  UNL1       -0.3794
     42 C          18.0896   74.8416   -4.4697 C.3     1  UNL1        0.1693
     43 H          16.9594   74.1359   -3.0260 H       1  UNL1        0.2105
@<TRIPOS>UNITY_ATOM_ATTR
2 1
charge -1
26 1
charge -1
@<TRIPOS>BOND
     1    25    28    1
     2    25    24    1
     3    25    26    1
     4    25    27    2
     5     1     4    1
     6     1    24    1
     7     1     2    1
     8     1     3    2
     9     6    11    1
    10     6    12    1
    11    29    36    1
    12    29    37    1
    13     7     9    1
    14     7    13    1
    15     8    10    1
    16     8    14    1
    17    28    37    1
    18     4     5    1
    19    30    33    1
    20    30    38    1
    21    31    34    1
    22    31    39    1
    23    32    35    1
    24    32    40    1
    25    41    42    1
    26    41    43    1
    27    15    19    2
    28    16    22    2
    29    17    12    1
    30    17    19   ar
    31    17    20   ar
    32    18    19   ar
    33    18    22   ar
    34    18    23    1
    35     9    10    1
    36     9    11    1
    37    10    12    1
    38    11     5    1
    39    33    34    1
    40    33    35    1
    41    34    36    1
    42    35    37    1
    43    36    42    1
    44    20    21   ar
    45    21    22   ar
@<TRIPOS>MOLECULE
*****
 43 45 0 0 0
SMALL
GASTEIGER

@<TRIPOS>ATOM
      1 P          23.0528   71.3463   -2.0994 P.3     1  UNL1        0.2189
      2 O          24.2192   70.7341   -3.0387 O.co2   1  UNL1       -0.4371
      3 O          21.7101   70.6937   -2.2499 O.2     1  UNL1       -0.5170
      4 O          23.1006   72.9342   -2.4059 O.3     1  UNL1       -0.3112
      5 C          22.2210   73.4608   -3.3842 C.3     1  UNL1        0.1811
      6 O          22.4436   72.2202   -5.4300 O.3     1  UNL1       -0.3308
      7 O          23.5814   74.7311   -6.6097 O.3     1  UNL1       -0.3794
      8 O          21.0164   74.7486   -7.5355 O.3     1  UNL1       -0.3779
      9 C          22.5391   74.5780   -5.6477 C.3     1  UNL1        0.1713
     10 C          21.2746   74.0812   -6.3170 C.3     1  UNL1        0.1895
     11 C          22.9025   73.4060   -4.7446 C.3     1  UNL1        0.1764
     12 C          21.5801   72.6058   -6.5119 C.3     1  UNL1        0.2383
     13 H          23.3718   75.4742   -7.1978 H       1  UNL1        0.2105
     14 H          20.8278   75.6835   -7.3586 H       1  UNL1        0.2106
     15 O          20.4215   71.3770   -8.7758 O.2     1  UNL1       -0.2464
     16 O          17.0420   69.5088   -6.2598 O.2     1  UNL1       -0.2670
     17 N          20.3975   71.7924   -6.4771 N.ar    1  UNL1       -0.2551
     18 N          18.7398   70.4476   -7.5212 N.ar    1  UNL1       -0.2743
     19 C          19.8971   71.2224   -7.6709 C.ar    1  UNL1        0.3323
     20 C          19.7468   71.5668   -5.2690 C.ar    1  UNL1        0.0869
     21 C          18.6434   70.8266   -5.1433 C.ar    1  UNL1        0.0795
     22 C          18.0559   70.1951   -6.3425 C.ar    1  UNL1        0.2626
     23 H          18.3729   70.0408   -8.3395 H       1  UNL1        0.1734
     24 O          23.6885   71.2431   -0.6168 O.3     1  UNL1       -0.2703
     25 P          22.9891   71.0409    0.8264 P.3     1  UNL1        0.2208
     26 O          24.1528   70.3439    1.7083 O.co2   1  UNL1       -0.4371
     27 O          21.7003   70.2720    0.7833 O.2     1  UNL1       -0.5170
     28 O          22.8585   72.5322    1.4297 O.3     1  UNL1       -0.2858
     29 O          24.5416   74.0874    0.8253 O.3     1  UNL1       -0.3258
     30 O          22.9620   76.0603    4.0908 O.3     1  UNL1       -0.3794
     31 O          22.4506   77.0589    1.4471 O.3     1  UNL1       -0.3794
     32 O          23.2289   73.1782    4.1353 O.3     1  UNL1       -0.3775
     33 C          22.9236   75.2366    2.9223 C.3     1  UNL1        0.1715
     34 C          23.4269   76.0623    1.7367 C.3     1  UNL1        0.1694
     35 C          23.8137   74.0150    3.1432 C.3     1  UNL1        0.1967
     36 C          23.6673   75.1764    0.5069 C.3     1  UNL1        0.1761
     37 C          24.0284   73.2308    1.8475 C.3     1  UNL1        0.2704
     38 H          22.3985   76.8375    3.9573 H       1  UNL1        0.2105
     39 H          22.3078   77.6111    2.2319 H       1  UNL1        0.2105
     40 H          23.0984   73.6862    4.9507 H       1  UNL1        0.2106
     41 O          24.8252   75.0216   -1.5774 O.3     1  UNL1       -0.3794
     42 C          24.3178   75.9507   -0.6374 C.3     1  UNL1        0.1693
     43 H          25.2419   75.5002   -2.3115 H       1  UNL1        0.2105
@<TRIPOS>UNITY_ATOM_ATTR
2 1
charge -1
26 1
charge -1
@<TRIPOS>BOND
     1    25    28    1
     2    25    24    1
     3    25    26    1
     4    25    27    2
     5     1     4    1
     6     1    24    1
     7     1     2    1
     8     1     3    2
     9     6    11    1
    10     6    12    1
    11    29    36    1
    12    29    37    1
    13     7     9    1
    14     7    13    1
    15     8    10    1
    16     8    14    1
    17    28    37    1
    18     4     5    1
    19    30    33    1
    20    30    38    1
    21    31    34    1
    22    31    39    1
    23    32    35    1
    24    32    40    1
    25    41    42    1
    26    41    43    1
    27    15    19    2
    28    16    22    2
    29    17    12    1
    30    17    19   ar
    31    17    20   ar
    32    18    19   ar
    33    18    22   ar
    34    18    23    1
    35     9    10    1
    36     9    11    1
    37    10    12    1
    38    11     5    1
    39    33    34    1
    40    33    35    1
    41    34    36    1
    42    35    37    1
    43    36    42    1
    44    20    21   ar
    45    21    22   ar
@<TRIPOS>MOLECULE
*****
 43 45 0 0 0
SMALL
GASTEIGER

@<TRIPOS>ATOM
      1 P          20.1925   72.8677   -1.1729 P.3     1  UNL1        0.2189
      2 O          18.7752   73.5301   -0.7607 O.co2   1  UNL1       -0.4371
      3 O          21.1894   73.8208   -1.7641 O.2     1  UNL1       -0.5170
      4 O          19.7782   71.6145   -2.1086 O.3     1  UNL1       -0.3112
      5 C          19.3610   71.8721   -3.4380 C.3     1  UNL1        0.1811
      6 O          17.4367   72.0540   -4.8655 O.3     1  UNL1       -0.3308
      7 O          16.0026   70.3816   -2.8314 O.3     1  UNL1       -0.3794
      8 O          16.5992   68.5677   -4.7783 O.3     1  UNL1       -0.3779
      9 C          17.3605   70.3099   -3.2629 C.3     1  UNL1        0.1713
     10 C          17.4415   69.6944   -4.6443 C.3     1  UNL1        0.1895
     11 C          17.8472   71.7309   -3.5189 C.3     1  UNL1        0.1764
     12 C          17.0148   70.8521   -5.5306 C.3     1  UNL1        0.2383
     13 H          15.6698   69.4859   -2.6614 H       1  UNL1        0.2105
     14 H          16.9119   67.8588   -4.1948 H       1  UNL1        0.2106
     15 O          15.6179   70.3164   -7.9264 O.2     1  UNL1       -0.2464
     16 O          19.4525   70.6765  -10.4577 O.2     1  UNL1       -0.2670
     17 N          17.6232   70.8002   -6.8301 N.ar    1  UNL1       -0.2551
     18 N          17.5284   70.4963   -9.1849 N.ar    1  UNL1       -0.2743
     19 C          16.8326   70.5223   -7.9695 C.ar    1  UNL1        0.3323
     20 C          18.9891   71.0237   -6.9652 C.ar    1  UNL1        0.0869
     21 C          19.6377   70.9940   -8.1312 C.ar    1  UNL1        0.0795
     22 C          18.8850   70.7107   -9.3703 C.ar    1  UNL1        0.2626
     23 H          16.9982   70.3043   -9.9922 H       1  UNL1        0.1734
     24 O          20.6729   72.1556    0.1965 O.3     1  UNL1       -0.2703
     25 P          21.9369   71.1973    0.5078 P.3     1  UNL1        0.2208
     26 O          22.7350   71.1670   -0.8991 O.co2   1  UNL1       -0.4371
     27 O          21.5661   69.8429    1.0388 O.2     1  UNL1       -0.5170
     28 O          22.8763   72.0669    1.4908 O.3     1  UNL1       -0.2858
     29 O          22.3287   73.7060    3.1125 O.3     1  UNL1       -0.3258
     30 O          25.7893   75.3894    1.6156 O.3     1  UNL1       -0.3794
     31 O          25.8056   74.2038    4.2314 O.3     1  UNL1       -0.3794
     32 O          23.9388   74.0625   -0.1717 O.3     1  UNL1       -0.3775
     33 C          24.9256   74.3200    2.0104 C.3     1  UNL1        0.1715
     34 C          24.6144   74.4798    3.4998 C.3     1  UNL1        0.1694
     35 C          23.6429   74.3833    1.1833 C.3     1  UNL1        0.1967
     36 C          23.4883   73.5325    3.9352 C.3     1  UNL1        0.1761
     37 C          22.5712   73.4384    1.7300 C.3     1  UNL1        0.2704
     38 H          26.6059   75.3547    2.1367 H       1  UNL1        0.2105
     39 H          26.5088   74.8084    3.9466 H       1  UNL1        0.2105
     40 H          24.6181   74.6678   -0.5062 H       1  UNL1        0.2106
     41 O          22.4302   72.6138    5.8705 O.3     1  UNL1       -0.3794
     42 C          23.0540   73.7851    5.3773 C.3     1  UNL1        0.1693
     43 H          22.1488   72.7598    6.7877 H       1  UNL1        0.2105
@<TRIPOS>UNITY_ATOM_ATTR
2 1
charge -1
26 1
charge -1
@<TRIPOS>BOND
     1    25    28    1
     2    25    24    1
     3    25    26    1
     4    25    27    2
     5     1     4    1
     6     1    24    1
     7     1     2    1
     8     1     3    2
     9     6    11    1
    10     6    12    1
    11    29    36    1
    12    29    37    1
    13     7     9    1
    14     7    13    1
    15     8    10    1
    16     8    14    1
    17    28    37    1
    18     4     5    1
    19    30    33    1
    20    30    38    1
    21    31    34    1
    22    31    39    1
    23    32    35    1
    24    32    40    1
    25    41    42    1
    26    41    43    1
    27    15    19    2
    28    16    22    2
    29    17    12    1
    30    17    19   ar
    31    17    20   ar
    32    18    19   ar
    33    18    22   ar
    34    18    23    1
    35     9    10    1
    36     9    11    1
    37    10    12    1
    38    11     5    1
    39    33    34    1
    40    33    35    1
    41    34    36    1
    42    35    37    1
    43    36    42    1
    44    20    21   ar
    45    21    22   ar
@<TRIPOS>MOLECULE
*****
 43 45 0 0 0
SMALL
GASTEIGER

@<TRIPOS>ATOM
      1 P          21.8911   72.7048   -6.1703 P.3     1  UNL1        0.2189
      2 O          21.3685   74.2171   -6.4093 O.co2   1  UNL1       -0.4371
      3 O          23.1533   72.3478   -6.8989 O.2     1  UNL1       -0.5170
      4 O          20.6007   71.7897   -6.5102 O.3     1  UNL1       -0.3112
      5 C          19.8767   72.0566   -7.6986 C.3     1  UNL1        0.1811
      6 O          18.6540   70.1074   -7.0063 O.3     1  UNL1       -0.3308
      7 O          17.8200   69.8418   -9.8742 O.3     1  UNL1       -0.3794
      8 O          15.6207   70.9648   -8.7171 O.3     1  UNL1       -0.3779
      9 C          18.0212   71.0223   -9.0987 C.3     1  UNL1        0.1713
     10 C          16.8788   71.2114   -8.1227 C.3     1  UNL1        0.1895
     11 C          19.1996   70.7752   -8.1651 C.3     1  UNL1        0.1764
     12 C          17.2207   70.2037   -7.0384 C.3     1  UNL1        0.2383
     13 H          17.0724   69.9756  -10.4785 H       1  UNL1        0.2105
     14 H          15.4492   71.6320   -9.3999 H       1  UNL1        0.2106
     15 O          16.7282   68.4373   -4.8900 O.2     1  UNL1       -0.2464
     16 O          15.4214   71.8803   -2.1189 O.2     1  UNL1       -0.2670
     17 N          16.7516   70.6115   -5.7441 N.ar    1  UNL1       -0.2551
     18 N          16.0781   70.1531   -3.5119 N.ar    1  UNL1       -0.2743
     19 C          16.5351   69.6448   -4.7346 C.ar    1  UNL1        0.3323
     20 C          16.5115   71.9567   -5.4863 C.ar    1  UNL1        0.0869
     21 C          16.0746   72.4250   -4.3154 C.ar    1  UNL1        0.0795
     22 C          15.8234   71.4809   -3.2074 C.ar    1  UNL1        0.2626
     23 H          15.9199   69.4980   -2.7938 H       1  UNL1        0.1734
     24 O          21.9928   72.6056   -4.5600 O.3     1  UNL1       -0.2703
     25 P          23.2366   72.8529   -3.5577 P.3     1  UNL1        0.2208
     26 O          23.9601   74.1596   -4.1796 O.co2   1  UNL1       -0.4371
     27 O          24.1395   71.6649   -3.3925 O.2     1  UNL1       -0.5170
     28 O          22.5602   73.3745   -2.1883 O.3     1  UNL1       -0.2858
     29 O          22.1247   75.6455   -2.7077 O.3     1  UNL1       -0.3258
     30 O          20.2829   75.4479    0.9827 O.3     1  UNL1       -0.3794
     31 O          18.6802   75.6050   -1.3952 O.3     1  UNL1       -0.3794
     32 O          22.7680   74.0335    0.5316 O.3     1  UNL1       -0.3775
     33 C          20.7009   74.9546   -0.2929 C.3     1  UNL1        0.1715
     34 C          20.0850   75.8428   -1.3758 C.3     1  UNL1        0.1694
     35 C          22.2260   74.9943   -0.3682 C.3     1  UNL1        0.1967
     36 C          20.6966   75.5443   -2.7513 C.3     1  UNL1        0.1761
     37 C          22.7284   74.7324   -1.7892 C.3     1  UNL1        0.2704
     38 H          19.3155   75.4250    1.0373 H       1  UNL1        0.2105
     39 H          18.3065   75.7968   -0.5207 H       1  UNL1        0.2105
     40 H          22.4427   74.2103    1.4276 H       1  UNL1        0.2106
     41 O          21.1003   77.6264   -3.8516 O.3     1  UNL1       -0.3794
     42 C          20.2122   76.5244   -3.8175 C.3     1  UNL1        0.1693
     43 H          20.8047   78.2584   -4.5260 H       1  UNL1        0.2105
@<TRIPOS>UNITY_ATOM_ATTR
2 1
charge -1
26 1
charge -1
@<TRIPOS>BOND
     1    25    28    1
     2    25    24    1
     3    25    26    1
     4    25    27    2
     5     1     4    1
     6     1    24    1
     7     1     2    1
     8     1     3    2
     9     6    11    1
    10     6    12    1
    11    29    36    1
    12    29    37    1
    13     7     9    1
    14     7    13    1
    15     8    10    1
    16     8    14    1
    17    28    37    1
    18     4     5    1
    19    30    33    1
    20    30    38    1
    21    31    34    1
    22    31    39    1
    23    32    35    1
    24    32    40    1
    25    41    42    1
    26    41    43    1
    27    15    19    2
    28    16    22    2
    29    17    12    1
    30    17    19   ar
    31    17    20   ar
    32    18    19   ar
    33    18    22   ar
    34    18    23    1
    35     9    10    1
    36     9    11    1
    37    10    12    1
    38    11     5    1
    39    33    34    1
    40    33    35    1
    41    34    36    1
    42    35    37    1
    43    36    42    1
    44    20    21   ar
    45    21    22   ar
@<TRIPOS>MOLECULE
*****
 43 45 0 0 0
SMALL
GASTEIGER

@<TRIPOS>ATOM
      1 P          20.9075   73.0047   -3.9319 P.3     1  UNL1        0.2189
      2 O          20.7315   74.0034   -2.6713 O.co2   1  UNL1       -0.4371
      3 O          21.4836   73.6361   -5.1651 O.2     1  UNL1       -0.5170
      4 O          19.4449   72.3343   -4.1034 O.3     1  UNL1       -0.3112
      5 C          18.3101   73.1827   -4.1202 C.3     1  UNL1        0.1811
      6 O          16.6282   72.0931   -5.4461 O.3     1  UNL1       -0.3308
      7 O          16.0191   70.4686   -3.0005 O.3     1  UNL1       -0.3794
      8 O          17.5298   68.7558   -4.4908 O.3     1  UNL1       -0.3779
      9 C          17.2759   70.9497   -3.4741 C.3     1  UNL1        0.1713
     10 C          17.7302   70.1428   -4.6724 C.3     1  UNL1        0.1895
     11 C          17.0511   72.3272   -4.0849 C.3     1  UNL1        0.1764
     12 C          16.8686   70.7173   -5.7841 C.3     1  UNL1        0.2383
     13 H          16.1375   69.5899   -2.6056 H       1  UNL1        0.2105
     14 H          18.0998   68.4379   -3.7733 H       1  UNL1        0.2106
     15 O          15.5071   70.5584   -8.2537 O.2     1  UNL1       -0.2464
     16 O          19.4533   70.4930  -10.6337 O.2     1  UNL1       -0.2670
     17 N          17.5154   70.6579   -7.0645 N.ar    1  UNL1       -0.2551
     18 N          17.4731   70.5261   -9.4367 N.ar    1  UNL1       -0.2743
     19 C          16.7396   70.5788   -8.2446 C.ar    1  UNL1        0.3323
     20 C          18.9037   70.6786   -7.1413 C.ar    1  UNL1        0.0869
     21 C          19.5880   70.6264   -8.2860 C.ar    1  UNL1        0.0795
     22 C          18.8530   70.5426   -9.5646 C.ar    1  UNL1        0.2626
     23 H          16.9538   70.4703  -10.2716 H       1  UNL1        0.1734
     24 O          21.7907   71.7977   -3.3187 O.3     1  UNL1       -0.2703
     25 P          23.2486   71.7975   -2.6204 P.3     1  UNL1        0.2208
     26 O          23.7630   73.3163   -2.8353 O.co2   1  UNL1       -0.4371
     27 O          24.1830   70.7469   -3.1468 O.2     1  UNL1       -0.5170
     28 O          22.9440   71.6902   -1.0390 O.3     1  UNL1       -0.2858
     29 O          22.5224   73.6963    0.1503 O.3     1  UNL1       -0.3258
     30 O          23.4489   71.2276    3.3280 O.3     1  UNL1       -0.3794
     31 O          20.7267   72.0431    2.9128 O.3     1  UNL1       -0.3794
     32 O          24.9068   70.9859    0.8389 O.3     1  UNL1       -0.3775
     33 C          22.9020   71.5531    2.0473 C.3     1  UNL1        0.1715
     34 C          21.8362   72.6335    2.2415 C.3     1  UNL1        0.1694
     35 C          24.0219   72.0595    1.1403 C.3     1  UNL1        0.1967
     36 C          21.3942   73.2239    0.8958 C.3     1  UNL1        0.1761
     37 C          23.4714   72.6709   -0.1494 C.3     1  UNL1        0.2704
     38 H          22.7430   70.9049    3.9086 H       1  UNL1        0.2105
     39 H          21.0195   71.6737    3.7607 H       1  UNL1        0.2105
     40 H          25.2487   70.6077    1.6634 H       1  UNL1        0.2106
     41 O          19.5232   74.4123    0.0034 O.3     1  UNL1       -0.3794
     42 C          20.4492   74.4101    1.0744 C.3     1  UNL1        0.1693
     43 H          18.9151   75.1618    0.1041 H       1  UNL1        0.2105
@<TRIPOS>UNITY_ATOM_ATTR
2 1
charge -1
26 1
charge -1
@<TRIPOS>BOND
     1    25    28    1
     2    25    24    1
     3    25    26    1
     4    25    27    2
     5     1     4    1
     6     1    24    1
     7     1     2    1
     8     1     3    2
     9     6    11    1
    10     6    12    1
    11    29    36    1
    12    29    37    1
    13     7     9    1
    14     7    13    1
    15     8    10    1
    16     8    14    1
    17    28    37    1
    18     4     5    1
    19    30    33    1
    20    30    38    1
    21    31    34    1
    22    31    39    1
    23    32    35    1
    24    32    40    1
    25    41    42    1
    26    41    43    1
    27    15    19    2
    28    16    22    2
    29    17    12    1
    30    17    19   ar
    31    17    20   ar
    32    18    19   ar
    33    18    22   ar
    34    18    23    1
    35     9    10    1
    36     9    11    1
    37    10    12    1
    38    11     5    1
    39    33    34    1
    40    33    35    1
    41    34    36    1
    42    35    37    1
    43    36    42    1
    44    20    21   ar
    45    21    22   ar
@<TRIPOS>MOLECULE
*****
 43 45 0 0 0
SMALL
GASTEIGER

@<TRIPOS>ATOM
      1 P          22.8040   72.0969   -3.9591 P.3     1  UNL1        0.2189
      2 O          23.4019   72.9047   -5.2268 O.co2   1  UNL1       -0.4371
      3 O          23.7890   71.2182   -3.2456 O.2     1  UNL1       -0.5170
      4 O          21.4987   71.3494   -4.5553 O.3     1  UNL1       -0.3112
      5 C          20.8255   70.4087   -3.7370 C.3     1  UNL1        0.1811
      6 O          18.9380   71.5716   -4.6638 O.3     1  UNL1       -0.3308
      7 O          17.3268   70.3246   -2.4639 O.3     1  UNL1       -0.3794
      8 O          16.7218   68.7523   -4.6083 O.3     1  UNL1       -0.3779
      9 C          18.4189   69.7796   -3.2026 C.3     1  UNL1        0.1713
     10 C          17.9738   69.4076   -4.6016 C.3     1  UNL1        0.1895
     11 C          19.4103   70.9045   -3.4729 C.3     1  UNL1        0.1764
     12 C          17.9285   70.7619   -5.2885 C.3     1  UNL1        0.2383
     13 H          16.6804   69.6246   -2.2790 H       1  UNL1        0.2105
     14 H          16.8025   67.8960   -4.1602 H       1  UNL1        0.2106
     15 O          15.9992   70.1587   -7.2612 O.2     1  UNL1       -0.2464
     16 O          19.1088   70.4445  -10.6509 O.2     1  UNL1       -0.2670
     17 N          18.2064   70.6726   -6.6943 N.ar    1  UNL1       -0.2551
     18 N          17.5491   70.3016   -8.9474 N.ar    1  UNL1       -0.2743
     19 C          17.1664   70.3627   -7.6014 C.ar    1  UNL1        0.3323
     20 C          19.4980   70.8915   -7.1607 C.ar    1  UNL1        0.0869
     21 C          19.8468   70.8283   -8.4474 C.ar    1  UNL1        0.0795
     22 C          18.8197   70.5100   -9.4601 C.ar    1  UNL1        0.2626
     23 H          16.8412   70.0869   -9.5975 H       1  UNL1        0.1734
     24 O          22.1663   73.2703   -3.0483 O.3     1  UNL1       -0.2703
     25 P          22.8677   74.4235   -2.1589 P.3     1  UNL1        0.2208
     26 O          23.8839   73.5947   -1.2113 O.co2   1  UNL1       -0.4371
     27 O          21.9020   75.2993   -1.4145 O.2     1  UNL1       -0.5170
     28 O          23.8250   75.2111   -3.1925 O.3     1  UNL1       -0.2858
     29 O          25.9674   76.2036   -2.9885 O.3     1  UNL1       -0.3258
     30 O          24.1108   79.1040   -5.2670 O.3     1  UNL1       -0.3794
     31 O          26.0836   77.4006   -6.4731 O.3     1  UNL1       -0.3794
     32 O          22.6410   77.7552   -3.1695 O.3     1  UNL1       -0.3775
     33 C          24.3878   77.7715   -4.8277 C.3     1  UNL1        0.1715
     34 C          25.8719   77.4864   -5.0667 C.3     1  UNL1        0.1694
     35 C          24.0504   77.6553   -3.3424 C.3     1  UNL1        0.1967
     36 C          26.3031   76.1830   -4.3809 C.3     1  UNL1        0.1761
     37 C          24.5661   76.3440   -2.7469 C.3     1  UNL1        0.2704
     38 H          24.3225   79.1843   -6.2095 H       1  UNL1        0.2105
     39 H          25.8069   78.2297   -6.8942 H       1  UNL1        0.2105
     40 H          22.3269   78.5896   -3.5503 H       1  UNL1        0.2106
     41 O          28.0434   74.7154   -5.1063 O.3     1  UNL1       -0.3794
     42 C          27.8110   75.9601   -4.4730 C.3     1  UNL1        0.1693
     43 H          28.9991   74.5602   -5.1721 H       1  UNL1        0.2105
@<TRIPOS>UNITY_ATOM_ATTR
2 1
charge -1
26 1
charge -1
@<TRIPOS>BOND
     1    25    28    1
     2    25    24    1
     3    25    26    1
     4    25    27    2
     5     1     4    1
     6     1    24    1
     7     1     2    1
     8     1     3    2
     9     6    11    1
    10     6    12    1
    11    29    36    1
    12    29    37    1
    13     7     9    1
    14     7    13    1
    15     8    10    1
    16     8    14    1
    17    28    37    1
    18     4     5    1
    19    30    33    1
    20    30    38    1
    21    31    34    1
    22    31    39    1
    23    32    35    1
    24    32    40    1
    25    41    42    1
    26    41    43    1
    27    15    19    2
    28    16    22    2
    29    17    12    1
    30    17    19   ar
    31    17    20   ar
    32    18    19   ar
    33    18    22   ar
    34    18    23    1
    35     9    10    1
    36     9    11    1
    37    10    12    1
    38    11     5    1
    39    33    34    1
    40    33    35    1
    41    34    36    1
    42    35    37    1
    43    36    42    1
    44    20    21   ar
    45    21    22   ar
@<TRIPOS>MOLECULE
*****
 43 45 0 0 0
SMALL
GASTEIGER

@<TRIPOS>ATOM
      1 P          22.8512   72.9242   -4.3393 P.3     1  UNL1        0.2189
      2 O          23.1551   73.9525   -5.5507 O.co2   1  UNL1       -0.4371
      3 O          24.0096   72.0601   -3.9357 O.2     1  UNL1       -0.5170
      4 O          21.5223   72.1373   -4.8219 O.3     1  UNL1       -0.3112
      5 C          20.9832   71.1378   -3.9745 C.3     1  UNL1        0.1811
      6 O          18.9257   71.9381   -4.9232 O.3     1  UNL1       -0.3308
      7 O          17.5688   70.6984   -2.5540 O.3     1  UNL1       -0.3794
      8 O          17.1282   68.8608   -4.5201 O.3     1  UNL1       -0.3779
      9 C          18.7046   70.2397   -3.2853 C.3     1  UNL1        0.1713
     10 C          18.2759   69.6785   -4.6250 C.3     1  UNL1        0.1895
     11 C          19.5208   71.4585   -3.6975 C.3     1  UNL1        0.1764
     12 C          18.0219   70.9422   -5.4293 C.3     1  UNL1        0.2383
     13 H          17.0323   69.9376   -2.2797 H       1  UNL1        0.2105
     14 H          17.3408   68.0702   -4.0000 H       1  UNL1        0.2106
     15 O          16.0040   70.5583   -7.3680 O.2     1  UNL1       -0.2464
     16 O          19.0866   70.2439  -10.7798 O.2     1  UNL1       -0.2670
     17 N          18.2688   70.7578   -6.8315 N.ar    1  UNL1       -0.2551
     18 N          17.5405   70.4022   -9.0653 N.ar    1  UNL1       -0.2743
     19 C          17.1850   70.5720   -7.7211 C.ar    1  UNL1        0.3323
     20 C          19.5739   70.7627   -7.3119 C.ar    1  UNL1        0.0869
     21 C          19.8961   70.5982   -8.5965 C.ar    1  UNL1        0.0795
     22 C          18.8227   70.3981   -9.5913 C.ar    1  UNL1        0.2626
     23 H          16.8020   70.2708   -9.7033 H       1  UNL1        0.1734
     24 O          22.2954   73.8930   -3.1708 O.3     1  UNL1       -0.2703
     25 P          23.0702   74.7084   -2.0098 P.3     1  UNL1        0.2208
     26 O          22.3547   76.1592   -2.0345 O.co2   1  UNL1       -0.4371
     27 O          24.5615   74.7504   -2.1778 O.2     1  UNL1       -0.5170
     28 O          22.5712   74.0312   -0.6324 O.3     1  UNL1       -0.2858
     29 O          23.6224   73.6975    1.4653 O.3     1  UNL1       -0.3258
     30 O          21.6580   70.0810    1.1290 O.3     1  UNL1       -0.3794
     31 O          20.7129   72.0388    3.0057 O.3     1  UNL1       -0.3794
     32 O          22.8507   71.2994   -1.2104 O.3     1  UNL1       -0.3775
     33 C          21.8294   71.4911    0.9625 C.3     1  UNL1        0.1715
     34 C          21.9742   72.1235    2.3482 C.3     1  UNL1        0.1694
     35 C          23.0790   71.7462    0.1218 C.3     1  UNL1        0.1967
     36 C          22.4259   73.5865    2.2449 C.3     1  UNL1        0.1761
     37 C          23.4698   73.2252    0.1253 C.3     1  UNL1        0.2704
     38 H          20.8659   69.9122    1.6616 H       1  UNL1        0.2105
     39 H          20.4390   71.1100    3.0639 H       1  UNL1        0.2105
     40 H          22.6044   70.3618   -1.1990 H       1  UNL1        0.2106
     41 O          22.9582   73.1339    4.5298 O.3     1  UNL1       -0.3794
     42 C          22.7286   74.1896    3.6149 C.3     1  UNL1        0.1693
     43 H          23.1524   73.5029    5.4061 H       1  UNL1        0.2105
@<TRIPOS>UNITY_ATOM_ATTR
2 1
charge -1
26 1
charge -1
@<TRIPOS>BOND
     1    25    28    1
     2    25    24    1
     3    25    26    1
     4    25    27    2
     5     1     4    1
     6     1    24    1
     7     1     2    1
     8     1     3    2
     9     6    11    1
    10     6    12    1
    11    29    36    1
    12    29    37    1
    13     7     9    1
    14     7    13    1
    15     8    10    1
    16     8    14    1
    17    28    37    1
    18     4     5    1
    19    30    33    1
    20    30    38    1
    21    31    34    1
    22    31    39    1
    23    32    35    1
    24    32    40    1
    25    41    42    1
    26    41    43    1
    27    15    19    2
    28    16    22    2
    29    17    12    1
    30    17    19   ar
    31    17    20   ar
    32    18    19   ar
    33    18    22   ar
    34    18    23    1
    35     9    10    1
    36     9    11    1
    37    10    12    1
    38    11     5    1
    39    33    34    1
    40    33    35    1
    41    34    36    1
    42    35    37    1
    43    36    42    1
    44    20    21   ar
    45    21    22   ar
@<TRIPOS>MOLECULE
*****
 43 45 0 0 0
SMALL
GASTEIGER

@<TRIPOS>ATOM
      1 P          20.5959   71.2472   -1.3563 P.3     1  UNL1        0.2189
      2 O          21.1997   70.5403   -0.0322 O.co2   1  UNL1       -0.4371
      3 O          19.9810   72.5970   -1.1295 O.2     1  UNL1       -0.5170
      4 O          19.6141   70.1241   -1.9828 O.3     1  UNL1       -0.3112
      5 C          19.2561   70.2258   -3.3500 C.3     1  UNL1        0.1811
      6 O          17.5947   71.3456   -4.6765 O.3     1  UNL1       -0.3308
      7 O          15.5644   69.8086   -3.0933 O.3     1  UNL1       -0.3794
      8 O          15.6919   68.3988   -5.4241 O.3     1  UNL1       -0.3779
      9 C          16.8566   69.4015   -3.5401 C.3     1  UNL1        0.1713
     10 C          16.8360   69.1283   -5.0296 C.3     1  UNL1        0.1895
     11 C          17.7852   70.6060   -3.4505 C.3     1  UNL1        0.1764
     12 C          16.8620   70.5329   -5.6079 C.3     1  UNL1        0.2383
     13 H          14.9539   69.0557   -3.1411 H       1  UNL1        0.2105
     14 H          15.7218   67.5127   -5.0309 H       1  UNL1        0.2106
     15 O          15.5194   70.3974   -8.0893 O.2     1  UNL1       -0.2464
     16 O          19.4624   70.7481  -10.4495 O.2     1  UNL1       -0.2670
     17 N          17.5130   70.5868   -6.8865 N.ar    1  UNL1       -0.2551
     18 N          17.4838   70.5723   -9.2624 N.ar    1  UNL1       -0.2743
     19 C          16.7469   70.5096   -8.0729 C.ar    1  UNL1        0.3323
     20 C          18.8960   70.7153   -6.9550 C.ar    1  UNL1        0.0869
     21 C          19.5837   70.7724   -8.0974 C.ar    1  UNL1        0.0795
     22 C          18.8587   70.6984   -9.3823 C.ar    1  UNL1        0.2626
     23 H          16.9712   70.5200  -10.1017 H       1  UNL1        0.1734
     24 O          21.8507   71.2422   -2.3753 O.3     1  UNL1       -0.2703
     25 P          22.9600   72.3725   -2.6988 P.3     1  UNL1        0.2208
     26 O          24.0783   71.5639   -3.5433 O.co2   1  UNL1       -0.4371
     27 O          23.4912   73.0786   -1.4851 O.2     1  UNL1       -0.5170
     28 O          22.2537   73.3405   -3.7801 O.3     1  UNL1       -0.2858
     29 O          23.3921   74.3530   -5.5954 O.3     1  UNL1       -0.3258
     30 O          20.3738   77.1236   -5.0815 O.3     1  UNL1       -0.3794
     31 O          20.3175   75.3709   -7.3559 O.3     1  UNL1       -0.3794
     32 O          21.5972   75.8764   -2.7735 O.3     1  UNL1       -0.3775
     33 C          20.9545   75.8167   -5.0940 C.3     1  UNL1        0.1715
     34 C          21.4540   75.5274   -6.5108 C.3     1  UNL1        0.1694
     35 C          22.1112   75.7750   -4.0971 C.3     1  UNL1        0.1967
     36 C          22.3230   74.2630   -6.5445 C.3     1  UNL1        0.1761
     37 C          22.9406   74.4985   -4.2475 C.3     1  UNL1        0.2704
     38 H          19.6383   77.1568   -5.7120 H       1  UNL1        0.2105
     39 H          19.7769   76.1759   -7.3252 H       1  UNL1        0.2105
     40 H          21.0744   76.6886   -2.6911 H       1  UNL1        0.2106
     41 O          22.5517   72.7788   -8.4029 O.3     1  UNL1       -0.3794
     42 C          22.9604   74.0433   -7.9147 C.3     1  UNL1        0.1693
     43 H          22.9494   72.6255   -9.2747 H       1  UNL1        0.2105
@<TRIPOS>UNITY_ATOM_ATTR
2 1
charge -1
26 1
charge -1
@<TRIPOS>BOND
     1    25    28    1
     2    25    24    1
     3    25    26    1
     4    25    27    2
     5     1     4    1
     6     1    24    1
     7     1     2    1
     8     1     3    2
     9     6    11    1
    10     6    12    1
    11    29    36    1
    12    29    37    1
    13     7     9    1
    14     7    13    1
    15     8    10    1
    16     8    14    1
    17    28    37    1
    18     4     5    1
    19    30    33    1
    20    30    38    1
    21    31    34    1
    22    31    39    1
    23    32    35    1
    24    32    40    1
    25    41    42    1
    26    41    43    1
    27    15    19    2
    28    16    22    2
    29    17    12    1
    30    17    19   ar
    31    17    20   ar
    32    18    19   ar
    33    18    22   ar
    34    18    23    1
    35     9    10    1
    36     9    11    1
    37    10    12    1
    38    11     5    1
    39    33    34    1
    40    33    35    1
    41    34    36    1
    42    35    37    1
    43    36    42    1
    44    20    21   ar
    45    21    22   ar
@<TRIPOS>MOLECULE
*****
 43 45 0 0 0
SMALL
GASTEIGER

@<TRIPOS>ATOM
      1 P          21.8503   72.4385   -5.6533 P.3     1  UNL1        0.2189
      2 O          21.1778   73.8539   -5.2510 O.co2   1  UNL1       -0.4371
      3 O          23.0624   72.5397   -6.5318 O.2     1  UNL1       -0.5170
      4 O          20.6175   71.5793   -6.2531 O.3     1  UNL1       -0.3112
      5 C          20.0786   71.9556   -7.5084 C.3     1  UNL1        0.1811
      6 O          18.8321   69.9412   -7.1055 O.3     1  UNL1       -0.3308
      7 O          18.1245   70.0189  -10.0182 O.3     1  UNL1       -0.3794
      8 O          15.8739   71.0025   -8.8334 O.3     1  UNL1       -0.3779
      9 C          18.2886   71.0988   -9.1005 C.3     1  UNL1        0.1713
     10 C          17.1042   71.1739   -8.1597 C.3     1  UNL1        0.1895
     11 C          19.4258   70.7400   -8.1522 C.3     1  UNL1        0.1764
     12 C          17.4012   70.0442   -7.1884 C.3     1  UNL1        0.2383
     13 H          17.4036   70.2251  -10.6345 H       1  UNL1        0.2105
     14 H          15.7305   71.7463   -9.4393 H       1  UNL1        0.2106
     15 O          16.4057   68.0477   -5.4560 O.2     1  UNL1       -0.2464
     16 O          15.4063   71.1312   -2.1796 O.2     1  UNL1       -0.2670
     17 N          16.8751   70.2971   -5.8767 N.ar    1  UNL1       -0.2551
     18 N          15.9090   69.5846   -3.8259 N.ar    1  UNL1       -0.2743
     19 C          16.3994   69.2241   -5.0875 C.ar    1  UNL1        0.3323
     20 C          16.8349   71.5973   -5.3850 C.ar    1  UNL1        0.0869
     21 C          16.3630   71.9246   -4.1803 C.ar    1  UNL1        0.0795
     22 C          15.8469   70.8624   -3.2929 C.ar    1  UNL1        0.2626
     23 H          15.5719   68.8536   -3.2587 H       1  UNL1        0.1734
     24 O          22.1152   71.7414   -4.2191 O.3     1  UNL1       -0.2703
     25 P          23.3130   71.9331   -3.1507 P.3     1  UNL1        0.2208
     26 O          23.9536   73.3602   -3.5636 O.co2   1  UNL1       -0.4371
     27 O          24.2963   70.7990   -3.1186 O.2     1  UNL1       -0.5170
     28 O          22.5674   72.2118   -1.7467 O.3     1  UNL1       -0.2858
     29 O          22.4143   74.0483   -0.2566 O.3     1  UNL1       -0.3258
     30 O          23.0637   71.0280    2.4833 O.3     1  UNL1       -0.3794
     31 O          20.4599   72.2226    2.2802 O.3     1  UNL1       -0.3794
     32 O          24.4495   70.9948   -0.0580 O.3     1  UNL1       -0.3775
     33 C          22.5461   71.6099    1.2837 C.3     1  UNL1        0.1715
     34 C          21.6263   72.7694    1.6713 C.3     1  UNL1        0.1694
     35 C          23.7095   72.1091    0.4288 C.3     1  UNL1        0.1967
     36 C          21.2451   73.6082    0.4440 C.3     1  UNL1        0.1761
     37 C          23.2240   72.9731   -0.7365 C.3     1  UNL1        0.2704
     38 H          22.3301   70.7086    3.0304 H       1  UNL1        0.2105
     39 H          20.7145   71.6949    3.0535 H       1  UNL1        0.2105
     40 H          24.7515   70.4559    0.6892 H       1  UNL1        0.2106
     41 O          20.6137   75.0787    2.2182 O.3     1  UNL1       -0.3794
     42 C          20.4580   74.8592    0.8283 C.3     1  UNL1        0.1693
     43 H          20.1184   75.8720    2.4771 H       1  UNL1        0.2105
@<TRIPOS>UNITY_ATOM_ATTR
2 1
charge -1
26 1
charge -1
@<TRIPOS>BOND
     1    25    28    1
     2    25    24    1
     3    25    26    1
     4    25    27    2
     5     1     4    1
     6     1    24    1
     7     1     2    1
     8     1     3    2
     9     6    11    1
    10     6    12    1
    11    29    36    1
    12    29    37    1
    13     7     9    1
    14     7    13    1
    15     8    10    1
    16     8    14    1
    17    28    37    1
    18     4     5    1
    19    30    33    1
    20    30    38    1
    21    31    34    1
    22    31    39    1
    23    32    35    1
    24    32    40    1
    25    41    42    1
    26    41    43    1
    27    15    19    2
    28    16    22    2
    29    17    12    1
    30    17    19   ar
    31    17    20   ar
    32    18    19   ar
    33    18    22   ar
    34    18    23    1
    35     9    10    1
    36     9    11    1
    37    10    12    1
    38    11     5    1
    39    33    34    1
    40    33    35    1
    41    34    36    1
    42    35    37    1
    43    36    42    1
    44    20    21   ar
    45    21    22   ar
@<TRIPOS>MOLECULE
*****
 43 45 0 0 0
SMALL
GASTEIGER

@<TRIPOS>ATOM
      1 P          23.4919   72.3495   -3.3840 P.3     1  UNL1        0.2189
      2 O          24.0199   70.8388   -3.1465 O.co2   1  UNL1       -0.4371
      3 O          24.5455   73.3295   -3.8096 O.2     1  UNL1       -0.5170
      4 O          22.7114   72.7083   -2.0129 O.3     1  UNL1       -0.3112
      5 C          23.4592   72.7973   -0.8127 C.3     1  UNL1        0.1811
      6 O          24.5257   71.2731    0.7083 O.3     1  UNL1       -0.3308
      7 O          21.7824   70.1932    1.2550 O.3     1  UNL1       -0.3794
      8 O          22.2282   71.8026    3.4109 O.3     1  UNL1       -0.3779
      9 C          22.1880   71.5359    0.9946 C.3     1  UNL1        0.1713
     10 C          22.8917   72.1165    2.2034 C.3     1  UNL1        0.1895
     11 C          23.3086   71.4958   -0.0370 C.3     1  UNL1        0.1764
     12 C          24.2652   71.4744    2.1070 C.3     1  UNL1        0.2383
     13 H          21.0670   70.1932    1.9109 H       1  UNL1        0.2105
     14 H          21.3596   72.2342    3.4244 H       1  UNL1        0.2106
     15 O          26.9622   70.6867    2.3965 O.2     1  UNL1       -0.2464
     16 O          28.1403   74.7438    4.2386 O.2     1  UNL1       -0.2670
     17 N          25.2981   72.3050    2.6589 N.ar    1  UNL1       -0.2551
     18 N          27.5466   72.7075    3.3133 N.ar    1  UNL1       -0.2743
     19 C          26.6204   71.8137    2.7609 C.ar    1  UNL1        0.3323
     20 C          24.9955   73.5916    3.0916 C.ar    1  UNL1        0.0869
     21 C          25.8901   74.4310    3.6172 C.ar    1  UNL1        0.0795
     22 C          27.2944   73.9953    3.7591 C.ar    1  UNL1        0.2626
     23 H          28.4742   72.3868    3.3946 H       1  UNL1        0.1734
     24 O          22.2892   72.1515   -4.4457 O.3     1  UNL1       -0.2703
     25 P          21.9085   72.9741   -5.7841 P.3     1  UNL1        0.2208
     26 O          22.9711   72.4236   -6.8728 O.co2   1  UNL1       -0.4371
     27 O          21.9142   74.4655   -5.6123 O.2     1  UNL1       -0.5170
     28 O          20.4909   72.3601   -6.2516 O.3     1  UNL1       -0.2858
     29 O          19.4747   70.2293   -6.0430 O.3     1  UNL1       -0.3258
     30 O          18.4558   71.0660   -9.9561 O.3     1  UNL1       -0.3794
     31 O          16.4369   71.1539   -7.9154 O.3     1  UNL1       -0.3794
     32 O          21.0599   71.8281   -8.9476 O.3     1  UNL1       -0.3775
     33 C          18.7226   71.3731   -8.5850 C.3     1  UNL1        0.1715
     34 C          17.7321   70.5939   -7.7175 C.3     1  UNL1        0.1694
     35 C          20.1588   70.9717   -8.2540 C.3     1  UNL1        0.1967
     36 C          18.1224   70.6608   -6.2348 C.3     1  UNL1        0.1761
     37 C          20.4279   71.0260   -6.7491 C.3     1  UNL1        0.2704
     38 H          17.5455   71.3189  -10.1729 H       1  UNL1        0.2105
     39 H          16.2028   71.1059   -8.8556 H       1  UNL1        0.2105
     40 H          20.8795   71.7845   -9.8991 H       1  UNL1        0.2106
     41 O          16.1260   69.3514   -6.1403 O.3     1  UNL1       -0.3794
     42 C          17.2406   69.7625   -5.3702 C.3     1  UNL1        0.1693
     43 H          15.5560   68.7787   -5.6029 H       1  UNL1        0.2105
@<TRIPOS>UNITY_ATOM_ATTR
2 1
charge -1
26 1
charge -1
@<TRIPOS>BOND
     1    25    28    1
     2    25    24    1
     3    25    26    1
     4    25    27    2
     5     1     4    1
     6     1    24    1
     7     1     2    1
     8     1     3    2
     9     6    11    1
    10     6    12    1
    11    29    36    1
    12    29    37    1
    13     7     9    1
    14     7    13    1
    15     8    10    1
    16     8    14    1
    17    28    37    1
    18     4     5    1
    19    30    33    1
    20    30    38    1
    21    31    34    1
    22    31    39    1
    23    32    35    1
    24    32    40    1
    25    41    42    1
    26    41    43    1
    27    15    19    2
    28    16    22    2
    29    17    12    1
    30    17    19   ar
    31    17    20   ar
    32    18    19   ar
    33    18    22   ar
    34    18    23    1
    35     9    10    1
    36     9    11    1
    37    10    12    1
    38    11     5    1
    39    33    34    1
    40    33    35    1
    41    34    36    1
    42    35    37    1
    43    36    42    1
    44    20    21   ar
    45    21    22   ar
@<TRIPOS>MOLECULE
*****
 43 45 0 0 0
SMALL
GASTEIGER

@<TRIPOS>ATOM
      1 P          23.2781   73.6730   -4.1722 P.3     1  UNL1        0.2189
      2 O          24.0076   72.2321   -4.2664 O.co2   1  UNL1       -0.4371
      3 O          24.1514   74.8482   -4.5004 O.2     1  UNL1       -0.5170
      4 O          22.6185   73.6786   -2.6948 O.3     1  UNL1       -0.3112
      5 C          21.6320   74.6517   -2.3984 C.3     1  UNL1        0.1811
      6 O          20.9218   72.7070   -1.1788 O.3     1  UNL1       -0.3308
      7 O          18.5951   74.3617   -0.2626 O.3     1  UNL1       -0.3794
      8 O          20.2629   74.4357    1.8937 O.3     1  UNL1       -0.3779
      9 C          19.9463   74.7557   -0.4956 C.3     1  UNL1        0.1713
     10 C          20.8407   74.2508    0.6174 C.3     1  UNL1        0.1895
     11 C          20.4623   73.9743   -1.6975 C.3     1  UNL1        0.1764
     12 C          20.9985   72.7842    0.2540 C.3     1  UNL1        0.2383
     13 H          18.2437   74.8478    0.5004 H       1  UNL1        0.2105
     14 H          20.1836   75.3845    2.0785 H       1  UNL1        0.2106
     15 O          21.4315   70.0749    0.9250 O.2     1  UNL1       -0.2464
     16 O          25.8741   70.8334    1.8888 O.2     1  UNL1       -0.2670
     17 N          22.2586   72.2462    0.6831 N.ar    1  UNL1       -0.2551
     18 N          23.6432   70.4547    1.4042 N.ar    1  UNL1       -0.2743
     19 C          22.3694   70.8716    0.9972 C.ar    1  UNL1        0.3323
     20 C          23.3677   73.0785    0.7886 C.ar    1  UNL1        0.0869
     21 C          24.5751   72.6656    1.1794 C.ar    1  UNL1        0.0795
     22 C          24.7760   71.2438    1.5260 C.ar    1  UNL1        0.2626
     23 H          23.7442   69.5012    1.6285 H       1  UNL1        0.1734
     24 O          21.9966   73.4957   -5.1415 O.3     1  UNL1       -0.2703
     25 P          21.7221   74.0219   -6.6451 P.3     1  UNL1        0.2208
     26 O          22.9756   73.4306   -7.4798 O.co2   1  UNL1       -0.4371
     27 O          21.5512   75.5094   -6.7549 O.2     1  UNL1       -0.5170
     28 O          20.4530   73.1635   -7.1528 O.3     1  UNL1       -0.2858
     29 O          18.6208   72.0635   -6.1284 O.3     1  UNL1       -0.3258
     30 O          19.7820   69.1005   -8.7596 O.3     1  UNL1       -0.3794
     31 O          17.3682   70.5742   -9.2592 O.3     1  UNL1       -0.3794
     32 O          21.7828   70.7068   -7.4194 O.3     1  UNL1       -0.3775
     33 C          19.5663   70.4459   -8.3251 C.3     1  UNL1        0.1715
     34 C          18.0764   70.6194   -8.0236 C.3     1  UNL1        0.1694
     35 C          20.4020   70.7061   -7.0732 C.3     1  UNL1        0.1967
     36 C          17.8081   71.9470   -7.3022 C.3     1  UNL1        0.1761
     37 C          20.0222   72.0290   -6.4055 C.3     1  UNL1        0.2704
     38 H          19.2546   68.9289   -9.5545 H       1  UNL1        0.2105
     39 H          17.5465   69.7311   -9.7048 H       1  UNL1        0.2105
     40 H          22.0108   69.8640   -7.8409 H       1  UNL1        0.2106
     41 O          15.8294   70.7677   -6.6676 O.3     1  UNL1       -0.3794
     42 C          16.3540   72.0696   -6.8519 C.3     1  UNL1        0.1693
     43 H          14.9045   70.8301   -6.3806 H       1  UNL1        0.2105
@<TRIPOS>UNITY_ATOM_ATTR
2 1
charge -1
26 1
charge -1
@<TRIPOS>BOND
     1    25    28    1
     2    25    24    1
     3    25    26    1
     4    25    27    2
     5     1     4    1
     6     1    24    1
     7     1     2    1
     8     1     3    2
     9     6    11    1
    10     6    12    1
    11    29    36    1
    12    29    37    1
    13     7     9    1
    14     7    13    1
    15     8    10    1
    16     8    14    1
    17    28    37    1
    18     4     5    1
    19    30    33    1
    20    30    38    1
    21    31    34    1
    22    31    39    1
    23    32    35    1
    24    32    40    1
    25    41    42    1
    26    41    43    1
    27    15    19    2
    28    16    22    2
    29    17    12    1
    30    17    19   ar
    31    17    20   ar
    32    18    19   ar
    33    18    22   ar
    34    18    23    1
    35     9    10    1
    36     9    11    1
    37    10    12    1
    38    11     5    1
    39    33    34    1
    40    33    35    1
    41    34    36    1
    42    35    37    1
    43    36    42    1
    44    20    21   ar
    45    21    22   ar
@<TRIPOS>MOLECULE
*****
 43 45 0 0 0
SMALL
GASTEIGER

@<TRIPOS>ATOM
      1 P          22.9538   72.7417   -3.6935 P.3     1  UNL1        0.2189
      2 O          22.5289   71.2010   -3.4419 O.co2   1  UNL1       -0.4371
      3 O          24.3348   72.9359   -4.2471 O.2     1  UNL1       -0.5170
      4 O          22.6572   73.4629   -2.2759 O.3     1  UNL1       -0.3112
      5 C          22.3440   72.6518   -1.1570 C.3     1  UNL1        0.1811
      6 O          20.5680   72.1505    0.3819 O.3     1  UNL1       -0.3308
      7 O          18.8551   73.9461   -1.3012 O.3     1  UNL1       -0.3794
      8 O          19.4998   75.5473    0.8100 O.3     1  UNL1       -0.3779
      9 C          20.2380   74.0672   -0.9720 C.3     1  UNL1        0.1713
     10 C          20.3991   74.5129    0.4664 C.3     1  UNL1        0.1895
     11 C          20.8371   72.6667   -0.9400 C.3     1  UNL1        0.1764
     12 C          20.1282   73.2261    1.2272 C.3     1  UNL1        0.2383
     13 H          18.4509   74.8280   -1.3279 H       1  UNL1        0.2105
     14 H          19.7132   76.3442    0.2998 H       1  UNL1        0.2106
     15 O          21.8040   71.0876    1.9996 O.2     1  UNL1       -0.2464
     16 O          22.8199   73.0955    6.0217 O.2     1  UNL1       -0.2670
     17 N          20.8433   73.1642    2.4707 N.ar    1  UNL1       -0.2551
     18 N          22.3086   72.0892    4.0015 N.ar    1  UNL1       -0.2743
     19 C          21.6575   72.0450    2.7622 C.ar    1  UNL1        0.3323
     20 C          20.7337   74.2056    3.3857 C.ar    1  UNL1        0.0869
     21 C          21.3602   74.2319    4.5638 C.ar    1  UNL1        0.0795
     22 C          22.2304   73.1010    4.9454 C.ar    1  UNL1        0.2626
     23 H          22.8811   71.3201    4.2264 H       1  UNL1        0.1734
     24 O          21.7658   73.2965   -4.6390 O.3     1  UNL1       -0.2703
     25 P          21.5244   73.1587   -6.2314 P.3     1  UNL1        0.2208
     26 O          22.6394   72.0771   -6.6835 O.co2   1  UNL1       -0.4371
     27 O          21.5853   74.4599   -6.9779 O.2     1  UNL1       -0.5170
     28 O          20.1193   72.3759   -6.3653 O.3     1  UNL1       -0.2858
     29 O          19.4755   70.2142   -5.6378 O.3     1  UNL1       -0.3258
     30 O          17.4242   70.3432   -9.2192 O.3     1  UNL1       -0.3794
     31 O          15.9760   70.5470   -6.7475 O.3     1  UNL1       -0.3794
     32 O          20.0726   71.4964   -9.0297 O.3     1  UNL1       -0.3775
     33 C          17.9773   70.8798   -8.0144 C.3     1  UNL1        0.1715
     34 C          17.3422   70.1505   -6.8288 C.3     1  UNL1        0.1694
     35 C          19.4908   70.6732   -8.0246 C.3     1  UNL1        0.1967
     36 C          18.0729   70.4797   -5.5200 C.3     1  UNL1        0.1761
     37 C          20.1122   70.9818   -6.6613 C.3     1  UNL1        0.2704
     38 H          16.4635   70.4716   -9.2192 H       1  UNL1        0.2105
     39 H          15.5262   70.3340   -7.5803 H       1  UNL1        0.2105
     40 H          19.6711   71.2912   -9.8880 H       1  UNL1        0.2106
     41 O          16.7633   68.5908   -4.8673 O.3     1  UNL1       -0.3794
     42 C          17.5572   69.6432   -4.3511 C.3     1  UNL1        0.1693
     43 H          16.4285   68.0498   -4.1346 H       1  UNL1        0.2105
@<TRIPOS>UNITY_ATOM_ATTR
2 1
charge -1
26 1
charge -1
@<TRIPOS>BOND
     1    25    28    1
     2    25    24    1
     3    25    26    1
     4    25    27    2
     5     1     4    1
     6     1    24    1
     7     1     2    1
     8     1     3    2
     9     6    11    1
    10     6    12    1
    11    29    36    1
    12    29    37    1
    13     7     9    1
    14     7    13    1
    15     8    10    1
    16     8    14    1
    17    28    37    1
    18     4     5    1
    19    30    33    1
    20    30    38    1
    21    31    34    1
    22    31    39    1
    23    32    35    1
    24    32    40    1
    25    41    42    1
    26    41    43    1
    27    15    19    2
    28    16    22    2
    29    17    12    1
    30    17    19   ar
    31    17    20   ar
    32    18    19   ar
    33    18    22   ar
    34    18    23    1
    35     9    10    1
    36     9    11    1
    37    10    12    1
    38    11     5    1
    39    33    34    1
    40    33    35    1
    41    34    36    1
    42    35    37    1
    43    36    42    1
    44    20    21   ar
    45    21    22   ar
@<TRIPOS>MOLECULE
*****
 43 45 0 0 0
SMALL
GASTEIGER

@<TRIPOS>ATOM
      1 P          23.1213   71.6060   -2.3455 P.3     1  UNL1        0.2189
      2 O          23.4836   73.1025   -1.8487 O.co2   1  UNL1       -0.4371
      3 O          24.2117   70.9090   -3.1049 O.2     1  UNL1       -0.5170
      4 O          21.7206   71.7873   -3.1347 O.3     1  UNL1       -0.3112
      5 C          20.9103   70.6440   -3.3452 C.3     1  UNL1        0.1811
      6 O          18.9736   71.7142   -4.2821 O.3     1  UNL1       -0.3308
      7 O          17.3859   70.2323   -2.2147 O.3     1  UNL1       -0.3794
      8 O          16.9763   68.7407   -4.4606 O.3     1  UNL1       -0.3779
      9 C          18.5410   69.8109   -2.9382 C.3     1  UNL1        0.1713
     10 C          18.1741   69.4850   -4.3710 C.3     1  UNL1        0.1895
     11 C          19.4534   71.0189   -3.1105 C.3     1  UNL1        0.1764
     12 C          18.0505   70.8682   -4.9870 C.3     1  UNL1        0.2383
     13 H          16.7883   69.4775   -2.0920 H       1  UNL1        0.2105
     14 H          17.1059   67.8692   -4.0552 H       1  UNL1        0.2106
     15 O          19.9630   72.5835   -6.1610 O.2     1  UNL1       -0.2464
     16 O          19.2424   70.8160  -10.3560 O.2     1  UNL1       -0.2670
     17 N          18.3829   70.8774   -6.3837 N.ar    1  UNL1       -0.2551
     18 N          19.6027   71.7019   -8.2488 N.ar    1  UNL1       -0.2743
     19 C          19.3570   71.7791   -6.8720 C.ar    1  UNL1        0.3323
     20 C          17.7459   69.9988   -7.2534 C.ar    1  UNL1        0.0869
     21 C          17.9907   69.9386   -8.5640 C.ar    1  UNL1        0.0795
     22 C          18.9949   70.8470   -9.1545 C.ar    1  UNL1        0.2626
     23 H          20.2773   72.3209   -8.6115 H       1  UNL1        0.1734
     24 O          22.6753   70.8673   -0.9786 O.3     1  UNL1       -0.2703
     25 P          21.8394   71.4066    0.2955 P.3     1  UNL1        0.2208
     26 O          21.5151   70.0560    1.1251 O.co2   1  UNL1       -0.4371
     27 O          20.6289   72.2194   -0.0621 O.2     1  UNL1       -0.5170
     28 O          22.9270   72.1874    1.1968 O.3     1  UNL1       -0.2858
     29 O          24.6533   71.8532    2.7857 O.3     1  UNL1       -0.3258
     30 O          22.1145   74.1919    5.0519 O.3     1  UNL1       -0.3794
     31 O          24.5679   75.3101    4.0628 O.3     1  UNL1       -0.3794
     32 O          21.0253   72.1961    3.2603 O.3     1  UNL1       -0.3775
     33 C          22.7623   73.7555    3.8538 C.3     1  UNL1        0.1715
     34 C          24.2724   73.9164    4.0393 C.3     1  UNL1        0.1694
     35 C          22.4049   72.2926    3.5976 C.3     1  UNL1        0.1967
     36 C          25.0462   73.2251    2.9085 C.3     1  UNL1        0.1761
     37 C          23.2658   71.6870    2.4875 C.3     1  UNL1        0.2704
     38 H          22.3369   75.1202    5.2201 H       1  UNL1        0.2105
     39 H          24.0727   75.7348    4.7808 H       1  UNL1        0.2105
     40 H          20.4910   72.5825    3.9710 H       1  UNL1        0.2106
     41 O          27.0518   71.9274    2.9561 O.3     1  UNL1       -0.3794
     42 C          26.5530   73.2372    3.1560 C.3     1  UNL1        0.1693
     43 H          28.0099   71.9200    3.1099 H       1  UNL1        0.2105
@<TRIPOS>UNITY_ATOM_ATTR
2 1
charge -1
26 1
charge -1
@<TRIPOS>BOND
     1    25    28    1
     2    25    24    1
     3    25    26    1
     4    25    27    2
     5     1     4    1
     6     1    24    1
     7     1     2    1
     8     1     3    2
     9     6    11    1
    10     6    12    1
    11    29    36    1
    12    29    37    1
    13     7     9    1
    14     7    13    1
    15     8    10    1
    16     8    14    1
    17    28    37    1
    18     4     5    1
    19    30    33    1
    20    30    38    1
    21    31    34    1
    22    31    39    1
    23    32    35    1
    24    32    40    1
    25    41    42    1
    26    41    43    1
    27    15    19    2
    28    16    22    2
    29    17    12    1
    30    17    19   ar
    31    17    20   ar
    32    18    19   ar
    33    18    22   ar
    34    18    23    1
    35     9    10    1
    36     9    11    1
    37    10    12    1
    38    11     5    1
    39    33    34    1
    40    33    35    1
    41    34    36    1
    42    35    37    1
    43    36    42    1
    44    20    21   ar
    45    21    22   ar
@<TRIPOS>MOLECULE
*****
 43 45 0 0 0
SMALL
GASTEIGER

@<TRIPOS>ATOM
      1 P          23.3280   73.4877   -3.9278 P.3     1  UNL1        0.2189
      2 O          24.3094   72.2065   -4.0403 O.co2   1  UNL1       -0.4371
      3 O          23.5859   74.5736   -4.9306 O.2     1  UNL1       -0.5170
      4 O          23.4378   73.9257   -2.3740 O.3     1  UNL1       -0.3112
      5 C          23.1853   75.2777   -2.0333 C.3     1  UNL1        0.1811
      6 O          21.6290   74.0843   -0.6449 O.3     1  UNL1       -0.3308
      7 O          20.5287   76.7701    0.1078 O.3     1  UNL1       -0.3794
      8 O          22.0886   76.1437    2.2551 O.3     1  UNL1       -0.3779
      9 C          21.8783   76.3893   -0.1546 C.3     1  UNL1        0.1713
     10 C          22.4326   75.5857    1.0033 C.3     1  UNL1        0.1895
     11 C          21.8656   75.3606   -1.2784 C.3     1  UNL1        0.1764
     12 C          21.7968   74.2249    0.7753 C.3     1  UNL1        0.2383
     13 H          20.5113   77.4270    0.8220 H       1  UNL1        0.2105
     14 H          22.5172   77.0083    2.3527 H       1  UNL1        0.2106
     15 O          20.8045   71.7315    1.6564 O.2     1  UNL1       -0.2464
     16 O          25.0379   70.1742    2.6020 O.2     1  UNL1       -0.2670
     17 N          22.6174   73.1495    1.2566 N.ar    1  UNL1       -0.2551
     18 N          22.9132   70.9581    2.1264 N.ar    1  UNL1       -0.2743
     19 C          22.0196   71.9383    1.6763 C.ar    1  UNL1        0.3323
     20 C          23.9987   73.3015    1.3085 C.ar    1  UNL1        0.0869
     21 C          24.8369   72.3575    1.7416 C.ar    1  UNL1        0.0795
     22 C          24.2933   71.0621    2.1982 C.ar    1  UNL1        0.2626
     23 H          22.5194   70.1060    2.4242 H       1  UNL1        0.1734
     24 O          21.8556   72.8265   -4.0157 O.3     1  UNL1       -0.2703
     25 P          20.8927   72.5442   -5.2830 P.3     1  UNL1        0.2208
     26 O          21.8828   71.8406   -6.3518 O.co2   1  UNL1       -0.4371
     27 O          20.1860   73.7627   -5.8024 O.2     1  UNL1       -0.5170
     28 O          19.9117   71.3592   -4.7947 O.3     1  UNL1       -0.2858
     29 O          17.6097   71.8666   -5.0393 O.3     1  UNL1       -0.3258
     30 O          17.2955   68.5072   -2.6589 O.3     1  UNL1       -0.3794
     31 O          16.5617   68.3542   -5.4313 O.3     1  UNL1       -0.3794
     32 O          19.4293   70.4085   -2.1988 O.3     1  UNL1       -0.3775
     33 C          17.8637   69.3324   -3.6795 C.3     1  UNL1        0.1715
     34 C          16.7947   69.5812   -4.7454 C.3     1  UNL1        0.1694
     35 C          18.3208   70.6510   -3.0583 C.3     1  UNL1        0.1967
     36 C          17.2392   70.6691   -5.7324 C.3     1  UNL1        0.1761
     37 C          18.6938   71.6796   -4.1274 C.3     1  UNL1        0.2704
     38 H          17.0037   67.6681   -3.0466 H       1  UNL1        0.2105
     39 H          16.2821   67.6757   -4.7967 H       1  UNL1        0.2105
     40 H          19.1803   69.7560   -1.5264 H       1  UNL1        0.2106
     41 O          16.1807   70.1609   -7.8133 O.3     1  UNL1       -0.3794
     42 C          16.1266   71.0447   -6.7087 C.3     1  UNL1        0.1693
     43 H          15.4780   70.3878   -8.4429 H       1  UNL1        0.2105
@<TRIPOS>UNITY_ATOM_ATTR
2 1
charge -1
26 1
charge -1
@<TRIPOS>BOND
     1    25    28    1
     2    25    24    1
     3    25    26    1
     4    25    27    2
     5     1     4    1
     6     1    24    1
     7     1     2    1
     8     1     3    2
     9     6    11    1
    10     6    12    1
    11    29    36    1
    12    29    37    1
    13     7     9    1
    14     7    13    1
    15     8    10    1
    16     8    14    1
    17    28    37    1
    18     4     5    1
    19    30    33    1
    20    30    38    1
    21    31    34    1
    22    31    39    1
    23    32    35    1
    24    32    40    1
    25    41    42    1
    26    41    43    1
    27    15    19    2
    28    16    22    2
    29    17    12    1
    30    17    19   ar
    31    17    20   ar
    32    18    19   ar
    33    18    22   ar
    34    18    23    1
    35     9    10    1
    36     9    11    1
    37    10    12    1
    38    11     5    1
    39    33    34    1
    40    33    35    1
    41    34    36    1
    42    35    37    1
    43    36    42    1
    44    20    21   ar
    45    21    22   ar
@<TRIPOS>MOLECULE
*****
 43 45 0 0 0
SMALL
GASTEIGER

@<TRIPOS>ATOM
      1 P          21.8636   72.4830   -5.6657 P.3     1  UNL1        0.2189
      2 O          21.1145   73.8861   -5.3702 O.co2   1  UNL1       -0.4371
      3 O          23.1262   72.5955   -6.4686 O.2     1  UNL1       -0.5170
      4 O          20.7053   71.5513   -6.3047 O.3     1  UNL1       -0.3112
      5 C          20.1175   71.9490   -7.5311 C.3     1  UNL1        0.1811
      6 O          18.8758   69.9313   -7.1297 O.3     1  UNL1       -0.3308
      7 O          18.1213   70.0408  -10.0296 O.3     1  UNL1       -0.3794
      8 O          15.8911   71.0134   -8.7980 O.3     1  UNL1       -0.3779
      9 C          18.3012   71.1107   -9.1032 C.3     1  UNL1        0.1713
     10 C          17.1322   71.1766   -8.1426 C.3     1  UNL1        0.1895
     11 C          19.4533   70.7409   -8.1773 C.3     1  UNL1        0.1764
     12 C          17.4439   70.0362   -7.1883 C.3     1  UNL1        0.2383
     13 H          17.3907   70.2542  -10.6319 H       1  UNL1        0.2105
     14 H          15.7386   71.7637   -9.3935 H       1  UNL1        0.2106
     15 O          16.3333   68.0461   -5.5199 O.2     1  UNL1       -0.2464
     16 O          15.5386   71.0697   -2.1335 O.2     1  UNL1       -0.2670
     17 N          16.9393   70.2755   -5.8656 N.ar    1  UNL1       -0.2551
     18 N          15.9386   69.5532   -3.8350 N.ar    1  UNL1       -0.2743
     19 C          16.4011   69.2071   -5.1111 C.ar    1  UNL1        0.3323
     20 C          16.9814   71.5579   -5.3293 C.ar    1  UNL1        0.0869
     21 C          16.5351   71.8716   -4.1113 C.ar    1  UNL1        0.0795
     22 C          15.9576   70.8131   -3.2580 C.ar    1  UNL1        0.2626
     23 H          15.5591   68.8251   -3.2913 H       1  UNL1        0.1734
     24 O          22.0595   71.8572   -4.1882 O.3     1  UNL1       -0.2703
     25 P          23.2686   72.0031   -3.1254 P.3     1  UNL1        0.2208
     26 O          23.8912   73.4563   -3.4688 O.co2   1  UNL1       -0.4371
     27 O          24.2623   70.8784   -3.1657 O.2     1  UNL1       -0.5170
     28 O          22.5379   72.1992   -1.6997 O.3     1  UNL1       -0.2858
     29 O          23.4320   70.6492   -0.1458 O.3     1  UNL1       -0.3258
     30 O          20.4075   72.2383    2.1733 O.3     1  UNL1       -0.3794
     31 O          23.1391   72.9132    2.7485 O.3     1  UNL1       -0.3794
     32 O          19.9701   71.7745   -0.6504 O.3     1  UNL1       -0.3775
     33 C          21.4454   72.2635    1.1897 C.3     1  UNL1        0.1715
     34 C          22.7573   71.8614    1.8664 C.3     1  UNL1        0.1694
     35 C          21.0959   71.2848    0.0701 C.3     1  UNL1        0.1967
     36 C          23.8600   71.6066    0.8298 C.3     1  UNL1        0.1761
     37 C          22.2769   71.0650   -0.8771 C.3     1  UNL1        0.2704
     38 H          20.6230   72.8579    2.8868 H       1  UNL1        0.2105
     39 H          22.4341   73.0643    3.3976 H       1  UNL1        0.2105
     40 H          19.2292   71.9092   -0.0398 H       1  UNL1        0.2106
     41 O          24.7634   70.2634    2.5873 O.3     1  UNL1       -0.3794
     42 C          25.1306   71.0527    1.4708 C.3     1  UNL1        0.1693
     43 H          25.5621   69.9040    3.0051 H       1  UNL1        0.2105
@<TRIPOS>UNITY_ATOM_ATTR
2 1
charge -1
26 1
charge -1
@<TRIPOS>BOND
     1    25    28    1
     2    25    24    1
     3    25    26    1
     4    25    27    2
     5     1     4    1
     6     1    24    1
     7     1     2    1
     8     1     3    2
     9     6    11    1
    10     6    12    1
    11    29    36    1
    12    29    37    1
    13     7     9    1
    14     7    13    1
    15     8    10    1
    16     8    14    1
    17    28    37    1
    18     4     5    1
    19    30    33    1
    20    30    38    1
    21    31    34    1
    22    31    39    1
    23    32    35    1
    24    32    40    1
    25    41    42    1
    26    41    43    1
    27    15    19    2
    28    16    22    2
    29    17    12    1
    30    17    19   ar
    31    17    20   ar
    32    18    19   ar
    33    18    22   ar
    34    18    23    1
    35     9    10    1
    36     9    11    1
    37    10    12    1
    38    11     5    1
    39    33    34    1
    40    33    35    1
    41    34    36    1
    42    35    37    1
    43    36    42    1
    44    20    21   ar
    45    21    22   ar
@<TRIPOS>MOLECULE
*****
 43 45 0 0 0
SMALL
GASTEIGER

@<TRIPOS>ATOM
      1 P          22.7885   71.2571   -2.4232 P.3     1  UNL1        0.2189
      2 O          24.2580   70.8721   -2.9797 O.co2   1  UNL1       -0.4371
      3 O          21.6625   70.4446   -2.9919 O.2     1  UNL1       -0.5170
      4 O          22.6905   72.8549   -2.6582 O.3     1  UNL1       -0.3112
      5 C          21.8206   73.3378   -3.6671 C.3     1  UNL1        0.1811
      6 O          21.9786   72.2387   -5.7980 O.3     1  UNL1       -0.3308
      7 O          23.4538   74.6752   -6.7351 O.3     1  UNL1       -0.3794
      8 O          20.9493   75.0745   -7.7374 O.3     1  UNL1       -0.3779
      9 C          22.3619   74.5771   -5.8221 C.3     1  UNL1        0.1713
     10 C          21.0761   74.2900   -6.5690 C.3     1  UNL1        0.1895
     11 C          22.5462   73.3043   -5.0052 C.3     1  UNL1        0.1764
     12 C          21.2122   72.8075   -6.8722 C.3     1  UNL1        0.2383
     13 H          23.3582   75.4807   -7.2679 H       1  UNL1        0.2105
     14 H          20.8658   76.0092   -7.4920 H       1  UNL1        0.2106
     15 O          20.8193   70.2178   -7.9290 O.2     1  UNL1       -0.2464
     16 O          16.2908   70.3613   -7.0847 O.2     1  UNL1       -0.2670
     17 N          19.9410   72.1436   -6.9406 N.ar    1  UNL1       -0.2551
     18 N          18.5648   70.2913   -7.5076 N.ar    1  UNL1       -0.2743
     19 C          19.8519   70.8437   -7.4909 C.ar    1  UNL1        0.3323
     20 C          18.8000   72.7806   -6.4650 C.ar    1  UNL1        0.0869
     21 C          17.5797   72.2406   -6.4894 C.ar    1  UNL1        0.0795
     22 C          17.3999   70.8851   -7.0481 C.ar    1  UNL1        0.2626
     23 H          18.4784   69.3866   -7.8868 H       1  UNL1        0.1734
     24 O          22.9634   71.1356   -0.8208 O.3     1  UNL1       -0.2703
     25 P          21.9238   71.4163    0.3848 P.3     1  UNL1        0.2208
     26 O          21.6519   69.9413    0.9913 O.co2   1  UNL1       -0.4371
     27 O          20.6836   72.1531   -0.0311 O.2     1  UNL1       -0.5170
     28 O          22.8003   72.1661    1.5137 O.3     1  UNL1       -0.2858
     29 O          22.3803   73.7932    3.1848 O.3     1  UNL1       -0.3258
     30 O          25.8670   75.3482    1.6115 O.3     1  UNL1       -0.3794
     31 O          25.9098   74.1070    4.2010 O.3     1  UNL1       -0.3794
     32 O          23.9019   74.1463   -0.1416 O.3     1  UNL1       -0.3775
     33 C          24.9672   74.3113    2.0123 C.3     1  UNL1        0.1715
     34 C          24.7105   74.4530    3.5138 C.3     1  UNL1        0.1694
     35 C          23.6637   74.4510    1.2283 C.3     1  UNL1        0.1967
     36 C          23.5557   73.5491    3.9661 C.3     1  UNL1        0.1761
     37 C          22.5668   73.5446    1.7901 C.3     1  UNL1        0.2704
     38 H          26.6970   75.2649    2.1052 H       1  UNL1        0.2105
     39 H          26.6311   74.6848    3.9060 H       1  UNL1        0.2105
     40 H          24.5979   74.7270   -0.4856 H       1  UNL1        0.2106
     41 O          22.2098   72.8299    5.8047 O.3     1  UNL1       -0.3794
     42 C          23.1788   73.7902    5.4263 C.3     1  UNL1        0.1693
     43 H          21.9607   72.9709    6.7319 H       1  UNL1        0.2105
@<TRIPOS>UNITY_ATOM_ATTR
2 1
charge -1
26 1
charge -1
@<TRIPOS>BOND
     1    25    28    1
     2    25    24    1
     3    25    26    1
     4    25    27    2
     5     1     4    1
     6     1    24    1
     7     1     2    1
     8     1     3    2
     9     6    11    1
    10     6    12    1
    11    29    36    1
    12    29    37    1
    13     7     9    1
    14     7    13    1
    15     8    10    1
    16     8    14    1
    17    28    37    1
    18     4     5    1
    19    30    33    1
    20    30    38    1
    21    31    34    1
    22    31    39    1
    23    32    35    1
    24    32    40    1
    25    41    42    1
    26    41    43    1
    27    15    19    2
    28    16    22    2
    29    17    12    1
    30    17    19   ar
    31    17    20   ar
    32    18    19   ar
    33    18    22   ar
    34    18    23    1
    35     9    10    1
    36     9    11    1
    37    10    12    1
    38    11     5    1
    39    33    34    1
    40    33    35    1
    41    34    36    1
    42    35    37    1
    43    36    42    1
    44    20    21   ar
    45    21    22   ar
