@<TRIPOS>MOLECULE
*****
 43 45 0 0 0
SMALL
GASTEIGER

@<TRIPOS>ATOM
      1 P          22.9569   71.6589   -2.7127 P.3     1  UNL1        0.2189
      2 O          23.7769   72.9699   -3.1883 O.co2   1  UNL1       -0.4371
      3 O          23.4682   70.3586   -3.2598 O.2     1  UNL1       -0.5170
      4 O          21.4184   72.0136   -3.0665 O.3     1  UNL1       -0.3112
      5 C          20.5746   70.9743   -3.5309 C.3     1  UNL1        0.1811
      6 O          18.7189   71.9852   -4.6749 O.3     1  UNL1       -0.3308
      7 O          16.9941   70.8150   -2.5194 O.3     1  UNL1       -0.3794
      8 O          16.6214   69.0773   -4.5878 O.3     1  UNL1       -0.3779
      9 C          18.1613   70.2726   -3.1348 C.3     1  UNL1        0.1713
     10 C          17.8414   69.7882   -4.5336 C.3     1  UNL1        0.1895
     11 C          19.1242   71.4212   -3.4084 C.3     1  UNL1        0.1764
     12 C          17.7946   71.0903   -5.3149 C.3     1  UNL1        0.2383
     13 H          16.3643   70.1000   -2.3347 H       1  UNL1        0.2105
     14 H          16.7018   68.2573   -4.0761 H       1  UNL1        0.2106
     15 O          16.0182   70.4230   -7.4070 O.2     1  UNL1       -0.2464
     16 O          19.4003   70.4627  -10.5377 O.2     1  UNL1       -0.2670
     17 N          18.1839   70.9203   -6.6864 N.ar    1  UNL1       -0.2551
     18 N          17.7036   70.4435   -8.9642 N.ar    1  UNL1       -0.2743
     19 C          17.2140   70.5842   -7.6594 C.ar    1  UNL1        0.3323
     20 C          19.5144   71.0871   -7.0548 C.ar    1  UNL1        0.0869
     21 C          19.9654   70.9481   -8.3032 C.ar    1  UNL1        0.0795
     22 C          19.0167   70.5977   -9.3799 C.ar    1  UNL1        0.2626
     23 H          17.0461   70.2091   -9.6588 H       1  UNL1        0.1734
     24 O          22.9944   71.7717   -1.1006 O.3     1  UNL1       -0.2703
     25 P          22.4652   70.7633    0.0466 P.3     1  UNL1        0.2208
     26 O          23.6607   69.6801    0.1687 O.co2   1  UNL1       -0.4371
     27 O          21.1158   70.1675   -0.2325 O.2     1  UNL1       -0.5170
     28 O          22.5491   71.6187    1.4127 O.3     1  UNL1       -0.2858
     29 O          21.4825   72.3864    3.3849 O.3     1  UNL1       -0.3258
     30 O          21.2364   75.8295    1.1188 O.3     1  UNL1       -0.3794
     31 O          23.0757   75.7100    3.3212 O.3     1  UNL1       -0.3794
     32 O          20.8664   73.2465   -0.1345 O.3     1  UNL1       -0.3775
     33 C          21.8366   74.6199    1.5900 C.3     1  UNL1        0.1715
     34 C          22.0495   74.7466    3.0997 C.3     1  UNL1        0.1694
     35 C          20.9103   73.4471    1.2741 C.3     1  UNL1        0.1967
     36 C          22.4399   73.3980    3.7193 C.3     1  UNL1        0.1761
     37 C          21.3609   72.1659    1.9783 C.3     1  UNL1        0.2704
     38 H          21.8198   76.5781    1.3158 H       1  UNL1        0.2105
     39 H          22.8170   76.5568    2.9247 H       1  UNL1        0.2105
     40 H          20.5796   74.0645   -0.5687 H       1  UNL1        0.2106
     41 O          21.2587   73.0369    5.7646 O.3     1  UNL1       -0.3794
     42 C          22.5033   73.4657    5.2436 C.3     1  UNL1        0.1693
     43 H          21.2845   73.0745    6.7340 H       1  UNL1        0.2105
@<TRIPOS>UNITY_ATOM_ATTR
2 1
charge -1
26 1
charge -1
@<TRIPOS>BOND
     1    25    28    1
     2    25    24    1
     3    25    26    1
     4    25    27    2
     5     1     4    1
     6     1    24    1
     7     1     2    1
     8     1     3    2
     9     6    11    1
    10     6    12    1
    11    29    36    1
    12    29    37    1
    13     7     9    1
    14     7    13    1
    15     8    10    1
    16     8    14    1
    17    28    37    1
    18     4     5    1
    19    30    33    1
    20    30    38    1
    21    31    34    1
    22    31    39    1
    23    32    35    1
    24    32    40    1
    25    41    42    1
    26    41    43    1
    27    15    19    2
    28    16    22    2
    29    17    12    1
    30    17    19   ar
    31    17    20   ar
    32    18    19   ar
    33    18    22   ar
    34    18    23    1
    35     9    10    1
    36     9    11    1
    37    10    12    1
    38    11     5    1
    39    33    34    1
    40    33    35    1
    41    34    36    1
    42    35    37    1
    43    36    42    1
    44    20    21   ar
    45    21    22   ar
@<TRIPOS>MOLECULE
*****
 43 45 0 0 0
SMALL
GASTEIGER

@<TRIPOS>ATOM
      1 P          21.6355   70.3565   -1.0499 P.3     1  UNL1        0.2189
      2 O          23.1336   70.7800   -1.4902 O.co2   1  UNL1       -0.4371
      3 O          21.5464   69.5857    0.2344 O.2     1  UNL1       -0.5170
      4 O          21.0418   69.6127   -2.3584 O.3     1  UNL1       -0.3112
      5 C          20.7369   70.3943   -3.5004 C.3     1  UNL1        0.1811
      6 O          19.0089   71.6932   -4.5495 O.3     1  UNL1       -0.3308
      7 O          17.1798   70.6320   -2.4236 O.3     1  UNL1       -0.3794
      8 O          16.5601   69.0729   -4.5734 O.3     1  UNL1       -0.3779
      9 C          18.2599   69.9818   -3.0915 C.3     1  UNL1        0.1713
     10 C          17.8613   69.6201   -4.5071 C.3     1  UNL1        0.1895
     11 C          19.3571   71.0131   -3.3237 C.3     1  UNL1        0.1764
     12 C          17.9694   70.9590   -5.2167 C.3     1  UNL1        0.2383
     13 H          16.4669   69.9931   -2.2641 H       1  UNL1        0.2105
     14 H          16.5428   68.2222   -4.1080 H       1  UNL1        0.2106
     15 O          16.1103   70.4417   -7.2793 O.2     1  UNL1       -0.2464
     16 O          19.4076   70.4352  -10.4994 O.2     1  UNL1       -0.2670
     17 N          18.3145   70.8178   -6.6032 N.ar    1  UNL1       -0.2551
     18 N          17.7536   70.4391   -8.8810 N.ar    1  UNL1       -0.2743
     19 C          17.3052   70.5578   -7.5593 C.ar    1  UNL1        0.3323
     20 C          19.6411   70.9373   -7.0027 C.ar    1  UNL1        0.0869
     21 C          20.0525   70.8201   -8.2670 C.ar    1  UNL1        0.0795
     22 C          19.0609   70.5484   -9.3277 C.ar    1  UNL1        0.2626
     23 H          17.0681   70.2576   -9.5643 H       1  UNL1        0.1734
     24 O          20.8460   71.7670   -1.0441 O.3     1  UNL1       -0.2703
     25 P          21.3508   73.2647   -0.7052 P.3     1  UNL1        0.2208
     26 O          20.0856   74.1849   -1.1175 O.co2   1  UNL1       -0.4371
     27 O          22.6388   73.6464   -1.3756 O.2     1  UNL1       -0.5170
     28 O          21.3920   73.3269    0.9071 O.3     1  UNL1       -0.2858
     29 O          23.1249   74.6047    1.8974 O.3     1  UNL1       -0.3258
     30 O          22.0134   72.3496    5.1731 O.3     1  UNL1       -0.3794
     31 O          21.3345   75.1384    5.0751 O.3     1  UNL1       -0.3794
     32 O          22.0623   71.1460    2.5409 O.3     1  UNL1       -0.3775
     33 C          21.8029   73.0755    3.9589 C.3     1  UNL1        0.1715
     34 C          22.2547   74.5205    4.1797 C.3     1  UNL1        0.1694
     35 C          22.6139   72.4236    2.8406 C.3     1  UNL1        0.1967
     36 C          22.3105   75.2921    2.8543 C.3     1  UNL1        0.1761
     37 C          22.6458   73.2954    1.5840 C.3     1  UNL1        0.2704
     38 H          21.5008   72.7581    5.8871 H       1  UNL1        0.2105
     39 H          21.3084   74.6413    5.9078 H       1  UNL1        0.2105
     40 H          22.0480   70.6036    3.3443 H       1  UNL1        0.2106
     41 O          22.2508   77.5718    2.1412 O.3     1  UNL1       -0.3794
     42 C          22.9082   76.6865    3.0291 C.3     1  UNL1        0.1693
     43 H          22.6207   78.4633    2.2415 H       1  UNL1        0.2105
@<TRIPOS>UNITY_ATOM_ATTR
2 1
charge -1
26 1
charge -1
@<TRIPOS>BOND
     1    25    28    1
     2    25    24    1
     3    25    26    1
     4    25    27    2
     5     1     4    1
     6     1    24    1
     7     1     2    1
     8     1     3    2
     9     6    11    1
    10     6    12    1
    11    29    36    1
    12    29    37    1
    13     7     9    1
    14     7    13    1
    15     8    10    1
    16     8    14    1
    17    28    37    1
    18     4     5    1
    19    30    33    1
    20    30    38    1
    21    31    34    1
    22    31    39    1
    23    32    35    1
    24    32    40    1
    25    41    42    1
    26    41    43    1
    27    15    19    2
    28    16    22    2
    29    17    12    1
    30    17    19   ar
    31    17    20   ar
    32    18    19   ar
    33    18    22   ar
    34    18    23    1
    35     9    10    1
    36     9    11    1
    37    10    12    1
    38    11     5    1
    39    33    34    1
    40    33    35    1
    41    34    36    1
    42    35    37    1
    43    36    42    1
    44    20    21   ar
    45    21    22   ar
@<TRIPOS>MOLECULE
*****
 43 45 0 0 0
SMALL
GASTEIGER

@<TRIPOS>ATOM
      1 P          21.9339   73.4077   -5.9392 P.3     1  UNL1        0.2189
      2 O          22.1449   74.8233   -5.1848 O.co2   1  UNL1       -0.4371
      3 O          22.9163   73.1220   -7.0368 O.2     1  UNL1       -0.5170
      4 O          20.3768   73.4297   -6.3780 O.3     1  UNL1       -0.3112
      5 C          20.0002   74.2157   -7.4953 C.3     1  UNL1        0.1811
      6 O          19.6229   71.9328   -8.1432 O.3     1  UNL1       -0.3308
      7 O          17.9429   73.0379  -10.3674 O.3     1  UNL1       -0.3794
      8 O          16.0735   72.2586   -8.5413 O.3     1  UNL1       -0.3779
      9 C          18.0973   73.5137   -9.0314 C.3     1  UNL1        0.1713
     10 C          17.3548   72.6155   -8.0642 C.3     1  UNL1        0.1895
     11 C          19.5478   73.2942   -8.6198 C.3     1  UNL1        0.1764
     12 C          18.2918   71.4243   -7.9578 C.3     1  UNL1        0.2383
     13 H          17.0244   73.1678  -10.6526 H       1  UNL1        0.2105
     14 H          15.5149   73.0500   -8.5912 H       1  UNL1        0.2106
     15 O          16.0251   70.0312   -7.0095 O.2     1  UNL1       -0.2464
     16 O          18.1040   68.9872   -3.0309 O.2     1  UNL1       -0.2670
     17 N          18.2134   70.7785   -6.6779 N.ar    1  UNL1       -0.2551
     18 N          17.0622   69.5123   -5.0293 N.ar    1  UNL1       -0.2743
     19 C          17.0285   70.1065   -6.2973 C.ar    1  UNL1        0.3323
     20 C          19.3036   70.8150   -5.8153 C.ar    1  UNL1        0.0869
     21 C          19.3192   70.2444   -4.6089 C.ar    1  UNL1        0.0795
     22 C          18.1209   69.5223   -4.1351 C.ar    1  UNL1        0.2626
     23 H          16.2476   69.0389   -4.7427 H       1  UNL1        0.1734
     24 O          21.9540   72.3418   -4.7241 O.3     1  UNL1       -0.2703
     25 P          22.9868   72.1522   -3.4952 P.3     1  UNL1        0.2208
     26 O          24.1946   73.1628   -3.8664 O.co2   1  UNL1       -0.4371
     27 O          23.4161   70.7320   -3.2657 O.2     1  UNL1       -0.5170
     28 O          22.2520   72.8410   -2.2340 O.3     1  UNL1       -0.2858
     29 O          21.5498   71.1343   -0.7472 O.3     1  UNL1       -0.3258
     30 O          19.8835   74.3965    1.1587 O.3     1  UNL1       -0.3794
     31 O          22.1802   73.1065    2.3027 O.3     1  UNL1       -0.3794
     32 O          19.8817   74.2571   -1.7327 O.3     1  UNL1       -0.3775
     33 C          20.8685   73.6982    0.3922 C.3     1  UNL1        0.1715
     34 C          21.4102   72.5472    1.2422 C.3     1  UNL1        0.1694
     35 C          20.2217   73.1652   -0.8849 C.3     1  UNL1        0.1967
     36 C          22.2712   71.5950    0.4013 C.3     1  UNL1        0.1761
     37 C          21.1428   72.1900   -1.6200 C.3     1  UNL1        0.2704
     38 H          20.2878   74.7378    1.9708 H       1  UNL1        0.2105
     39 H          21.6250   73.7060    2.8257 H       1  UNL1        0.2105
     40 H          19.2982   74.8670   -1.2559 H       1  UNL1        0.2106
     41 O          22.6715   69.2409    0.3193 O.3     1  UNL1       -0.3794
     42 C          22.6919   70.3569    1.1901 C.3     1  UNL1        0.1693
     43 H          22.9374   68.4456    0.8076 H       1  UNL1        0.2105
@<TRIPOS>UNITY_ATOM_ATTR
2 1
charge -1
26 1
charge -1
@<TRIPOS>BOND
     1    25    28    1
     2    25    24    1
     3    25    26    1
     4    25    27    2
     5     1     4    1
     6     1    24    1
     7     1     2    1
     8     1     3    2
     9     6    11    1
    10     6    12    1
    11    29    36    1
    12    29    37    1
    13     7     9    1
    14     7    13    1
    15     8    10    1
    16     8    14    1
    17    28    37    1
    18     4     5    1
    19    30    33    1
    20    30    38    1
    21    31    34    1
    22    31    39    1
    23    32    35    1
    24    32    40    1
    25    41    42    1
    26    41    43    1
    27    15    19    2
    28    16    22    2
    29    17    12    1
    30    17    19   ar
    31    17    20   ar
    32    18    19   ar
    33    18    22   ar
    34    18    23    1
    35     9    10    1
    36     9    11    1
    37    10    12    1
    38    11     5    1
    39    33    34    1
    40    33    35    1
    41    34    36    1
    42    35    37    1
    43    36    42    1
    44    20    21   ar
    45    21    22   ar
@<TRIPOS>MOLECULE
*****
 43 45 0 0 0
SMALL
GASTEIGER

@<TRIPOS>ATOM
      1 P          22.8002   71.7565   -2.2718 P.3     1  UNL1        0.2189
      2 O          23.4792   73.2156   -2.4373 O.co2   1  UNL1       -0.4371
      3 O          23.3670   70.6892   -3.1611 O.2     1  UNL1       -0.5170
      4 O          21.2168   72.0437   -2.4401 O.3     1  UNL1       -0.3112
      5 C          20.5410   71.4769   -3.5491 C.3     1  UNL1        0.1811
      6 O          18.5852   72.2383   -4.7191 O.3     1  UNL1       -0.3308
      7 O          17.0017   71.0072   -2.4902 O.3     1  UNL1       -0.3794
      8 O          16.7934   69.1416   -4.4683 O.3     1  UNL1       -0.3779
      9 C          18.2139   70.5558   -3.0921 C.3     1  UNL1        0.1713
     10 C          17.9355   69.9737   -4.4622 C.3     1  UNL1        0.1895
     11 C          19.0538   71.7808   -3.4316 C.3     1  UNL1        0.1764
     12 C          17.7520   71.2245   -5.3047 C.3     1  UNL1        0.2383
     13 H          16.4488   70.2423   -2.2642 H       1  UNL1        0.2105
     14 H          16.9597   68.3600   -3.9186 H       1  UNL1        0.2106
     15 O          16.0244   70.3329   -7.3536 O.2     1  UNL1       -0.2464
     16 O          19.3796   70.5041  -10.5087 O.2     1  UNL1       -0.2670
     17 N          18.1476   71.0277   -6.6708 N.ar    1  UNL1       -0.2551
     18 N          17.6964   70.4190   -8.9230 N.ar    1  UNL1       -0.2743
     19 C          17.2028   70.5761   -7.6215 C.ar    1  UNL1        0.3323
     20 C          19.4594   71.2821   -7.0559 C.ar    1  UNL1        0.0869
     21 C          19.9145   71.1260   -8.3008 C.ar    1  UNL1        0.0795
     22 C          18.9915   70.6575   -9.3547 C.ar    1  UNL1        0.2626
     23 H          17.0562   70.1050   -9.6022 H       1  UNL1        0.1734
     24 O          22.9501   71.4633   -0.6893 O.3     1  UNL1       -0.2703
     25 P          22.0506   70.5714    0.3149 P.3     1  UNL1        0.2208
     26 O          23.1447   69.9174    1.3114 O.co2   1  UNL1       -0.4371
     27 O          21.1655   69.5732   -0.3738 O.2     1  UNL1       -0.5170
     28 O          21.2635   71.6481    1.2239 O.3     1  UNL1       -0.2858
     29 O          21.6388   73.9881    1.2367 O.3     1  UNL1       -0.3258
     30 O          20.3795   73.5004    5.1389 O.3     1  UNL1       -0.3794
     31 O          18.6417   74.7681    3.2361 O.3     1  UNL1       -0.3794
     32 O          22.0718   71.5007    3.9072 O.3     1  UNL1       -0.3775
     33 C          20.4048   73.2307    3.7346 C.3     1  UNL1        0.1715
     34 C          20.0223   74.5131    2.9931 C.3     1  UNL1        0.1694
     35 C          21.8092   72.7790    3.3383 C.3     1  UNL1        0.1967
     36 C          20.2843   74.3812    1.4868 C.3     1  UNL1        0.1761
     37 C          21.9784   72.7280    1.8188 C.3     1  UNL1        0.2704
     38 H          19.4904   73.7872    5.3972 H       1  UNL1        0.2105
     39 H          18.4897   74.8488    4.1909 H       1  UNL1        0.2105
     40 H          21.9617   71.5463    4.8693 H       1  UNL1        0.2106
     41 O          19.4901   75.4153   -0.5154 O.3     1  UNL1       -0.3794
     42 C          20.0590   75.6994    0.7494 C.3     1  UNL1        0.1693
     43 H          19.3408   76.2451   -0.9959 H       1  UNL1        0.2105
@<TRIPOS>UNITY_ATOM_ATTR
2 1
charge -1
26 1
charge -1
@<TRIPOS>BOND
     1    25    28    1
     2    25    24    1
     3    25    26    1
     4    25    27    2
     5     1     4    1
     6     1    24    1
     7     1     2    1
     8     1     3    2
     9     6    11    1
    10     6    12    1
    11    29    36    1
    12    29    37    1
    13     7     9    1
    14     7    13    1
    15     8    10    1
    16     8    14    1
    17    28    37    1
    18     4     5    1
    19    30    33    1
    20    30    38    1
    21    31    34    1
    22    31    39    1
    23    32    35    1
    24    32    40    1
    25    41    42    1
    26    41    43    1
    27    15    19    2
    28    16    22    2
    29    17    12    1
    30    17    19   ar
    31    17    20   ar
    32    18    19   ar
    33    18    22   ar
    34    18    23    1
    35     9    10    1
    36     9    11    1
    37    10    12    1
    38    11     5    1
    39    33    34    1
    40    33    35    1
    41    34    36    1
    42    35    37    1
    43    36    42    1
    44    20    21   ar
    45    21    22   ar
@<TRIPOS>MOLECULE
*****
 43 45 0 0 0
SMALL
GASTEIGER

@<TRIPOS>ATOM
      1 P          22.6272   72.0967   -2.7802 P.3     1  UNL1        0.2189
      2 O          23.3772   70.7246   -3.1953 O.co2   1  UNL1       -0.4371
      3 O          23.0485   72.6752   -1.4614 O.2     1  UNL1       -0.5170
      4 O          21.0557   71.7380   -2.9202 O.3     1  UNL1       -0.3112
      5 C          20.2584   72.5216   -3.7910 C.3     1  UNL1        0.1811
      6 O          18.1095   72.2630   -4.8347 O.3     1  UNL1       -0.3308
      7 O          17.3206   70.7074   -2.3957 O.3     1  UNL1       -0.3794
      8 O          17.8348   68.7413   -4.2141 O.3     1  UNL1       -0.3779
      9 C          18.5775   70.7534   -3.0690 C.3     1  UNL1        0.1713
     10 C          18.5081   69.9743   -4.3659 C.3     1  UNL1        0.1895
     11 C          18.7925   72.1779   -3.5648 C.3     1  UNL1        0.1764
     12 C          17.7640   70.9390   -5.2735 C.3     1  UNL1        0.2383
     13 H          17.1613   69.8072   -2.0697 H       1  UNL1        0.2105
     14 H          18.3476   68.1626   -3.6285 H       1  UNL1        0.2106
     15 O          15.9447   70.4345   -7.3743 O.2     1  UNL1       -0.2464
     16 O          19.3094   70.3938  -10.5236 O.2     1  UNL1       -0.2670
     17 N          18.1372   70.7924   -6.6521 N.ar    1  UNL1       -0.2551
     18 N          17.6215   70.4148   -8.9407 N.ar    1  UNL1       -0.2743
     19 C          17.1462   70.5397   -7.6290 C.ar    1  UNL1        0.3323
     20 C          19.4731   70.8997   -7.0235 C.ar    1  UNL1        0.0869
     21 C          19.9101   70.7768   -8.2786 C.ar    1  UNL1        0.0795
     22 C          18.9390   70.5120   -9.3597 C.ar    1  UNL1        0.2626
     23 H          16.9491   70.2382   -9.6382 H       1  UNL1        0.1734
     24 O          22.8955   73.0569   -4.0526 O.3     1  UNL1       -0.2703
     25 P          23.4727   74.5641   -4.1420 P.3     1  UNL1        0.2208
     26 O          25.0697   74.3600   -3.9818 O.co2   1  UNL1       -0.4371
     27 O          22.8674   75.5147   -3.1502 O.2     1  UNL1       -0.5170
     28 O          23.2689   74.9886   -5.6858 O.3     1  UNL1       -0.2858
     29 O          21.4123   75.9692   -6.7849 O.3     1  UNL1       -0.3258
     30 O          22.6853   73.4276   -9.7800 O.3     1  UNL1       -0.3794
     31 O          23.1042   76.2562  -10.0474 O.3     1  UNL1       -0.3794
     32 O          22.7823   72.5671   -7.0178 O.3     1  UNL1       -0.3775
     33 C          22.8434   74.3173   -8.6714 C.3     1  UNL1        0.1715
     34 C          22.2569   75.6760   -9.0596 C.3     1  UNL1        0.1694
     35 C          22.1108   73.7415   -7.4609 C.3     1  UNL1        0.1967
     36 C          22.1471   76.6008   -7.8398 C.3     1  UNL1        0.1761
     37 C          22.0147   74.7588   -6.3225 C.3     1  UNL1        0.2704
     38 H          23.1485   73.7871  -10.5518 H       1  UNL1        0.2105
     39 H          23.1654   75.6621  -10.8119 H       1  UNL1        0.2105
     40 H          22.8364   71.9310   -7.7474 H       1  UNL1        0.2106
     41 O          20.3953   77.6185   -9.1066 O.3     1  UNL1       -0.3794
     42 C          21.4205   77.9022   -8.1724 C.3     1  UNL1        0.1693
     43 H          19.9241   78.4376   -9.3274 H       1  UNL1        0.2105
@<TRIPOS>UNITY_ATOM_ATTR
2 1
charge -1
26 1
charge -1
@<TRIPOS>BOND
     1    25    28    1
     2    25    24    1
     3    25    26    1
     4    25    27    2
     5     1     4    1
     6     1    24    1
     7     1     2    1
     8     1     3    2
     9     6    11    1
    10     6    12    1
    11    29    36    1
    12    29    37    1
    13     7     9    1
    14     7    13    1
    15     8    10    1
    16     8    14    1
    17    28    37    1
    18     4     5    1
    19    30    33    1
    20    30    38    1
    21    31    34    1
    22    31    39    1
    23    32    35    1
    24    32    40    1
    25    41    42    1
    26    41    43    1
    27    15    19    2
    28    16    22    2
    29    17    12    1
    30    17    19   ar
    31    17    20   ar
    32    18    19   ar
    33    18    22   ar
    34    18    23    1
    35     9    10    1
    36     9    11    1
    37    10    12    1
    38    11     5    1
    39    33    34    1
    40    33    35    1
    41    34    36    1
    42    35    37    1
    43    36    42    1
    44    20    21   ar
    45    21    22   ar
@<TRIPOS>MOLECULE
*****
 43 45 0 0 0
SMALL
GASTEIGER

@<TRIPOS>ATOM
      1 P          22.3055   74.6319   -7.4967 P.3     1  UNL1        0.2189
      2 O          22.7060   73.6108   -6.3074 O.co2   1  UNL1       -0.4371
      3 O          21.5489   75.8509   -7.0574 O.2     1  UNL1       -0.5170
      4 O          21.5560   73.6920   -8.5796 O.3     1  UNL1       -0.3112
      5 C          21.2561   72.3543   -8.2212 C.3     1  UNL1        0.1811
      6 O          19.5337   70.6910   -8.4216 O.3     1  UNL1       -0.3308
      7 O          18.1708   72.5969  -10.2927 O.3     1  UNL1       -0.3794
      8 O          16.7939   72.9603   -7.9670 O.3     1  UNL1       -0.3779
      9 C          18.9332   72.8746   -9.1192 C.3     1  UNL1        0.1713
     10 C          18.1359   72.5265   -7.8796 C.3     1  UNL1        0.1895
     11 C          20.0771   71.8703   -9.0541 C.3     1  UNL1        0.1764
     12 C          18.2596   71.0128   -7.8402 C.3     1  UNL1        0.2383
     13 H          17.4345   73.2259  -10.3561 H       1  UNL1        0.2105
     14 H          16.7681   73.9297   -7.9891 H       1  UNL1        0.2106
     15 O          16.0561   69.6296   -6.7405 O.2     1  UNL1       -0.2464
     16 O          18.1927   69.0694   -2.6955 O.2     1  UNL1       -0.2670
     17 N          18.2132   70.4941   -6.5022 N.ar    1  UNL1       -0.2551
     18 N          17.1218   69.3516   -4.7274 N.ar    1  UNL1       -0.2743
     19 C          17.0584   69.8157   -6.0475 C.ar    1  UNL1        0.3323
     20 C          19.3045   70.6599   -5.6565 C.ar    1  UNL1        0.0869
     21 C          19.3486   70.2125   -4.3998 C.ar    1  UNL1        0.0795
     22 C          18.1830   69.4928   -3.8472 C.ar    1  UNL1        0.2626
     23 H          16.3286   68.8763   -4.3887 H       1  UNL1        0.1734
     24 O          23.7257   74.9403   -8.2045 O.3     1  UNL1       -0.2703
     25 P          24.1569   74.9433   -9.7624 P.3     1  UNL1        0.2208
     26 O          23.6990   76.4093  -10.2712 O.co2   1  UNL1       -0.4371
     27 O          23.5888   73.8055  -10.5603 O.2     1  UNL1       -0.5170
     28 O          25.7695   75.0049   -9.7398 O.3     1  UNL1       -0.2858
     29 O          26.7893   76.4528   -8.1649 O.3     1  UNL1       -0.3258
     30 O          29.9800   75.9162  -10.7304 O.3     1  UNL1       -0.3794
     31 O          30.0124   74.6639   -8.1461 O.3     1  UNL1       -0.3794
     32 O          27.2979   76.1564  -11.7924 O.3     1  UNL1       -0.3775
     33 C          28.8015   75.5298  -10.0182 C.3     1  UNL1        0.1715
     34 C          29.0780   75.6725   -8.5202 C.3     1  UNL1        0.1694
     35 C          27.6446   76.4338  -10.4399 C.3     1  UNL1        0.1967
     36 C          27.7866   75.5343   -7.7029 C.3     1  UNL1        0.1761
     37 C          26.4265   76.2526   -9.5324 C.3     1  UNL1        0.2704
     38 H          30.7183   75.3457  -10.4676 H       1  UNL1        0.2105
     39 H          30.8231   74.7621   -8.6698 H       1  UNL1        0.2105
     40 H          28.0772   76.2749  -12.3567 H       1  UNL1        0.2106
     41 O          28.3003   74.6114   -5.5597 O.3     1  UNL1       -0.3794
     42 C          28.0128   75.8293   -6.2217 C.3     1  UNL1        0.1693
     43 H          28.4469   74.7838   -4.6160 H       1  UNL1        0.2105
@<TRIPOS>UNITY_ATOM_ATTR
2 1
charge -1
26 1
charge -1
@<TRIPOS>BOND
     1    25    28    1
     2    25    24    1
     3    25    26    1
     4    25    27    2
     5     1     4    1
     6     1    24    1
     7     1     2    1
     8     1     3    2
     9     6    11    1
    10     6    12    1
    11    29    36    1
    12    29    37    1
    13     7     9    1
    14     7    13    1
    15     8    10    1
    16     8    14    1
    17    28    37    1
    18     4     5    1
    19    30    33    1
    20    30    38    1
    21    31    34    1
    22    31    39    1
    23    32    35    1
    24    32    40    1
    25    41    42    1
    26    41    43    1
    27    15    19    2
    28    16    22    2
    29    17    12    1
    30    17    19   ar
    31    17    20   ar
    32    18    19   ar
    33    18    22   ar
    34    18    23    1
    35     9    10    1
    36     9    11    1
    37    10    12    1
    38    11     5    1
    39    33    34    1
    40    33    35    1
    41    34    36    1
    42    35    37    1
    43    36    42    1
    44    20    21   ar
    45    21    22   ar
@<TRIPOS>MOLECULE
*****
 43 45 0 0 0
SMALL
GASTEIGER

@<TRIPOS>ATOM
      1 P          22.5541   73.3527   -4.1892 P.3     1  UNL1        0.2189
      2 O          22.4695   74.6516   -5.1499 O.co2   1  UNL1       -0.4371
      3 O          23.8666   72.6261   -4.2198 O.2     1  UNL1       -0.5170
      4 O          21.2572   72.4782   -4.6030 O.3     1  UNL1       -0.3112
      5 C          20.7681   71.5174   -3.6836 C.3     1  UNL1        0.1811
      6 O          18.7110   72.1468   -4.7539 O.3     1  UNL1       -0.3308
      7 O          17.3243   70.8475   -2.4345 O.3     1  UNL1       -0.3794
      8 O          17.1258   68.9510   -4.3840 O.3     1  UNL1       -0.3779
      9 C          18.5283   70.4632   -3.0964 C.3     1  UNL1        0.1713
     10 C          18.2141   69.8502   -4.4452 C.3     1  UNL1        0.1895
     11 C          19.2734   71.7326   -3.4897 C.3     1  UNL1        0.1764
     12 C          17.9112   71.0784   -5.2865 C.3     1  UNL1        0.2383
     13 H          16.8314   70.0533   -2.1734 H       1  UNL1        0.2105
     14 H          17.3679   68.1869   -3.8378 H       1  UNL1        0.2106
     15 O          16.0194   70.6774   -7.3453 O.2     1  UNL1       -0.2464
     16 O          19.3093   70.3676  -10.5581 O.2     1  UNL1       -0.2670
     17 N          18.2456   70.8906   -6.6701 N.ar    1  UNL1       -0.2551
     18 N          17.6591   70.5236   -8.9433 N.ar    1  UNL1       -0.2743
     19 C          17.2200   70.6961   -7.6244 C.ar    1  UNL1        0.3323
     20 C          19.5779   70.9007   -7.0685 C.ar    1  UNL1        0.0869
     21 C          19.9800   70.7335   -8.3301 C.ar    1  UNL1        0.0795
     22 C          18.9714   70.5244   -9.3889 C.ar    1  UNL1        0.2626
     23 H          16.9622   70.3861   -9.6254 H       1  UNL1        0.1734
     24 O          22.1464   73.9443   -2.7412 O.3     1  UNL1       -0.2703
     25 P          22.9792   74.8476   -1.6907 P.3     1  UNL1        0.2208
     26 O          22.5276   76.3568   -2.0595 O.co2   1  UNL1       -0.4371
     27 O          24.4627   74.6196   -1.7239 O.2     1  UNL1       -0.5170
     28 O          22.2890   74.5532   -0.2618 O.3     1  UNL1       -0.2858
     29 O          21.5977   72.2874   -0.1931 O.3     1  UNL1       -0.3258
     30 O          20.0026   73.5727    3.3921 O.3     1  UNL1       -0.3794
     31 O          22.3073   71.8593    3.3988 O.3     1  UNL1       -0.3794
     32 O          19.9436   75.3124    1.0792 O.3     1  UNL1       -0.3775
     33 C          20.9653   73.5293    2.3354 C.3     1  UNL1        0.1715
     34 C          21.5113   72.1031    2.2425 C.3     1  UNL1        0.1694
     35 C          20.2884   73.9323    1.0266 C.3     1  UNL1        0.1967
     36 C          22.3459   71.9114    0.9690 C.3     1  UNL1        0.1761
     37 C          21.1850   73.6554   -0.1815 C.3     1  UNL1        0.2704
     38 H          20.4260   73.3184    4.2261 H       1  UNL1        0.2105
     39 H          21.7686   71.9842    4.1959 H       1  UNL1        0.2105
     40 H          19.3758   75.4746    1.8480 H       1  UNL1        0.2106
     41 O          21.6040   69.6537    0.7207 O.3     1  UNL1       -0.3794
     42 C          22.7687   70.4567    0.7759 C.3     1  UNL1        0.1693
     43 H          21.8577   68.7252    0.5977 H       1  UNL1        0.2105
@<TRIPOS>UNITY_ATOM_ATTR
2 1
charge -1
26 1
charge -1
@<TRIPOS>BOND
     1    25    28    1
     2    25    24    1
     3    25    26    1
     4    25    27    2
     5     1     4    1
     6     1    24    1
     7     1     2    1
     8     1     3    2
     9     6    11    1
    10     6    12    1
    11    29    36    1
    12    29    37    1
    13     7     9    1
    14     7    13    1
    15     8    10    1
    16     8    14    1
    17    28    37    1
    18     4     5    1
    19    30    33    1
    20    30    38    1
    21    31    34    1
    22    31    39    1
    23    32    35    1
    24    32    40    1
    25    41    42    1
    26    41    43    1
    27    15    19    2
    28    16    22    2
    29    17    12    1
    30    17    19   ar
    31    17    20   ar
    32    18    19   ar
    33    18    22   ar
    34    18    23    1
    35     9    10    1
    36     9    11    1
    37    10    12    1
    38    11     5    1
    39    33    34    1
    40    33    35    1
    41    34    36    1
    42    35    37    1
    43    36    42    1
    44    20    21   ar
    45    21    22   ar
@<TRIPOS>MOLECULE
*****
 43 45 0 0 0
SMALL
GASTEIGER

@<TRIPOS>ATOM
      1 P          21.9220   70.7054   -2.7422 P.3     1  UNL1        0.2189
      2 O          23.4090   70.7805   -3.3752 O.co2   1  UNL1       -0.4371
      3 O          21.2700   69.3559   -2.8141 O.2     1  UNL1       -0.5170
      4 O          21.1270   71.9097   -3.4740 O.3     1  UNL1       -0.3112
      5 C          21.7659   72.5931   -4.5383 C.3     1  UNL1        0.1811
      6 O          20.8425   74.0006   -6.2529 O.3     1  UNL1       -0.3308
      7 O          19.2120   75.2639   -4.0766 O.3     1  UNL1       -0.3794
      8 O          17.4233   73.5773   -5.2567 O.3     1  UNL1       -0.3779
      9 C          19.6052   73.9016   -4.2343 C.3     1  UNL1        0.1713
     10 C          18.7944   73.2439   -5.3314 C.3     1  UNL1        0.1895
     11 C          21.0103   73.8839   -4.8231 C.3     1  UNL1        0.1764
     12 C          19.4607   73.7867   -6.5842 C.3     1  UNL1        0.2383
     13 H          18.3176   75.3007   -3.7016 H       1  UNL1        0.2105
     14 H          17.0448   73.2097   -4.4428 H       1  UNL1        0.2106
     15 O          18.3339   74.4094   -9.0982 O.2     1  UNL1       -0.2464
     16 O          19.2117   70.1936  -10.7407 O.2     1  UNL1       -0.2670
     17 N          19.3820   72.8708   -7.6871 N.ar    1  UNL1       -0.2551
     18 N          18.7720   72.3098   -9.9141 N.ar    1  UNL1       -0.2743
     19 C          18.7959   73.2826   -8.9066 C.ar    1  UNL1        0.3323
     20 C          19.8828   71.5804   -7.5533 C.ar    1  UNL1        0.0869
     21 C          19.8513   70.6642   -8.5233 C.ar    1  UNL1        0.0795
     22 C          19.2557   71.0138   -9.8291 C.ar    1  UNL1        0.2626
     23 H          18.3681   72.5740  -10.7724 H       1  UNL1        0.1734
     24 O          22.1364   71.2699   -1.2428 O.3     1  UNL1       -0.2703
     25 P          22.4696   70.5053    0.1419 P.3     1  UNL1        0.2208
     26 O          23.9346   69.8734   -0.1264 O.co2   1  UNL1       -0.4371
     27 O          21.4304   69.5048    0.5578 O.2     1  UNL1       -0.5170
     28 O          22.7250   71.6877    1.2103 O.3     1  UNL1       -0.2858
     29 O          21.3712   73.2103    2.4208 O.3     1  UNL1       -0.3258
     30 O          24.2758   75.8254    1.0884 O.3     1  UNL1       -0.3794
     31 O          24.2111   75.0696    3.8583 O.3     1  UNL1       -0.3794
     32 O          23.3395   73.7031   -0.6433 O.3     1  UNL1       -0.3775
     33 C          23.7653   74.5758    1.5609 C.3     1  UNL1        0.1715
     34 C          23.1517   74.8007    2.9442 C.3     1  UNL1        0.1694
     35 C          22.7104   74.0651    0.5813 C.3     1  UNL1        0.1967
     36 C          22.3503   73.5741    3.4009 C.3     1  UNL1        0.1761
     37 C          21.9381   72.8746    1.1528 C.3     1  UNL1        0.2704
     38 H          24.9466   76.1549    1.7057 H       1  UNL1        0.2105
     39 H          24.7095   75.8460    3.5582 H       1  UNL1        0.2105
     40 H          23.8247   74.4651   -0.9950 H       1  UNL1        0.2106
     41 O          21.7008   72.6802    5.5193 O.3     1  UNL1       -0.3794
     42 C          21.6004   73.8342    4.7055 C.3     1  UNL1        0.1693
     43 H          21.2283   72.8313    6.3534 H       1  UNL1        0.2105
@<TRIPOS>UNITY_ATOM_ATTR
2 1
charge -1
26 1
charge -1
@<TRIPOS>BOND
     1    25    28    1
     2    25    24    1
     3    25    26    1
     4    25    27    2
     5     1     4    1
     6     1    24    1
     7     1     2    1
     8     1     3    2
     9     6    11    1
    10     6    12    1
    11    29    36    1
    12    29    37    1
    13     7     9    1
    14     7    13    1
    15     8    10    1
    16     8    14    1
    17    28    37    1
    18     4     5    1
    19    30    33    1
    20    30    38    1
    21    31    34    1
    22    31    39    1
    23    32    35    1
    24    32    40    1
    25    41    42    1
    26    41    43    1
    27    15    19    2
    28    16    22    2
    29    17    12    1
    30    17    19   ar
    31    17    20   ar
    32    18    19   ar
    33    18    22   ar
    34    18    23    1
    35     9    10    1
    36     9    11    1
    37    10    12    1
    38    11     5    1
    39    33    34    1
    40    33    35    1
    41    34    36    1
    42    35    37    1
    43    36    42    1
    44    20    21   ar
    45    21    22   ar
@<TRIPOS>MOLECULE
*****
 43 45 0 0 0
SMALL
GASTEIGER

@<TRIPOS>ATOM
      1 P          22.4032   72.9366   -4.8496 P.3     1  UNL1        0.2189
      2 O          23.7432   72.9627   -3.9433 O.co2   1  UNL1       -0.4371
      3 O          22.6368   72.7605   -6.3213 O.2     1  UNL1       -0.5170
      4 O          21.6169   74.2836   -4.4192 O.3     1  UNL1       -0.3112
      5 C          20.2311   74.1965   -4.1369 C.3     1  UNL1        0.1811
      6 O          19.6685   74.8576   -6.3775 O.3     1  UNL1       -0.3308
      7 O          17.4739   76.4876   -5.1455 O.3     1  UNL1       -0.3794
      8 O          16.1442   74.2824   -6.0431 O.3     1  UNL1       -0.3779
      9 C          17.9816   75.2139   -4.7516 C.3     1  UNL1        0.1713
     10 C          17.5103   74.1406   -5.7105 C.3     1  UNL1        0.1895
     11 C          19.4865   75.2145   -4.9897 C.3     1  UNL1        0.1764
     12 C          18.4276   74.3576   -6.9020 C.3     1  UNL1        0.2383
     13 H          16.5143   76.5114   -5.0023 H       1  UNL1        0.2105
     14 H          15.6019   74.1351   -5.2525 H       1  UNL1        0.2106
     15 O          17.8683   73.9876   -9.6457 O.2     1  UNL1       -0.2464
     16 O          19.4459   69.6578   -9.5711 O.2     1  UNL1       -0.2670
     17 N          18.6824   73.1438   -7.6253 N.ar    1  UNL1       -0.2551
     18 N          18.6544   71.8321   -9.6064 N.ar    1  UNL1       -0.2743
     19 C          18.3638   73.0612   -9.0008 C.ar    1  UNL1        0.3323
     20 C          19.2426   72.0519   -6.9711 C.ar    1  UNL1        0.0869
     21 C          19.5123   70.8864   -7.5627 C.ar    1  UNL1        0.0795
     22 C          19.2097   70.7172   -8.9986 C.ar    1  UNL1        0.2626
     23 H          18.4405   71.7512  -10.5642 H       1  UNL1        0.1734
     24 O          21.5231   71.7671   -4.1634 O.3     1  UNL1       -0.2703
     25 P          21.8853   70.7155   -2.9904 P.3     1  UNL1        0.2208
     26 O          23.4904   70.5569   -3.1169 O.co2   1  UNL1       -0.4371
     27 O          21.1271   69.4220   -3.0681 O.2     1  UNL1       -0.5170
     28 O          21.6638   71.5394   -1.6204 O.3     1  UNL1       -0.2858
     29 O          23.2813   72.8952   -0.5423 O.3     1  UNL1       -0.3258
     30 O          21.1231   71.6872    2.7643 O.3     1  UNL1       -0.3794
     31 O          20.8920   74.3936    1.8316 O.3     1  UNL1       -0.3794
     32 O          21.6141   69.8265    0.6019 O.3     1  UNL1       -0.3775
     33 C          21.3087   72.0780    1.4012 C.3     1  UNL1        0.1715
     34 C          21.8981   73.4898    1.3830 C.3     1  UNL1        0.1694
     35 C          22.2571   71.0907    0.7236 C.3     1  UNL1        0.1967
     36 C          22.3724   73.8740   -0.0250 C.3     1  UNL1        0.1761
     37 C          22.7066   71.5914   -0.6502 C.3     1  UNL1        0.2704
     38 H          20.5215   72.3098    3.2002 H       1  UNL1        0.2105
     39 H          20.6009   74.1396    2.7214 H       1  UNL1        0.2105
     40 H          21.3346   69.5203    1.4782 H       1  UNL1        0.2106
     41 O          22.1444   76.2524   -0.0072 O.3     1  UNL1       -0.3794
     42 C          23.1058   75.2135   -0.0358 C.3     1  UNL1        0.1693
     43 H          22.5968   77.1109   -0.0134 H       1  UNL1        0.2105
@<TRIPOS>UNITY_ATOM_ATTR
2 1
charge -1
26 1
charge -1
@<TRIPOS>BOND
     1    25    28    1
     2    25    24    1
     3    25    26    1
     4    25    27    2
     5     1     4    1
     6     1    24    1
     7     1     2    1
     8     1     3    2
     9     6    11    1
    10     6    12    1
    11    29    36    1
    12    29    37    1
    13     7     9    1
    14     7    13    1
    15     8    10    1
    16     8    14    1
    17    28    37    1
    18     4     5    1
    19    30    33    1
    20    30    38    1
    21    31    34    1
    22    31    39    1
    23    32    35    1
    24    32    40    1
    25    41    42    1
    26    41    43    1
    27    15    19    2
    28    16    22    2
    29    17    12    1
    30    17    19   ar
    31    17    20   ar
    32    18    19   ar
    33    18    22   ar
    34    18    23    1
    35     9    10    1
    36     9    11    1
    37    10    12    1
    38    11     5    1
    39    33    34    1
    40    33    35    1
    41    34    36    1
    42    35    37    1
    43    36    42    1
    44    20    21   ar
    45    21    22   ar
@<TRIPOS>MOLECULE
*****
 43 45 0 0 0
SMALL
GASTEIGER

@<TRIPOS>ATOM
      1 P          22.7199   72.8552   -4.1929 P.3     1  UNL1        0.2189
      2 O          22.9071   72.9300   -5.7981 O.co2   1  UNL1       -0.4371
      3 O          23.4633   71.7394   -3.5194 O.2     1  UNL1       -0.5170
      4 O          21.1149   72.8540   -3.9886 O.3     1  UNL1       -0.3112
      5 C          20.5007   71.6891   -3.4656 C.3     1  UNL1        0.1811
      6 O          18.5132   72.3751   -4.6288 O.3     1  UNL1       -0.3308
      7 O          16.9856   71.0670   -2.4048 O.3     1  UNL1       -0.3794
      8 O          16.8519   69.2054   -4.3930 O.3     1  UNL1       -0.3779
      9 C          18.2145   70.6697   -3.0108 C.3     1  UNL1        0.1713
     10 C          17.9585   70.0840   -4.3838 C.3     1  UNL1        0.1895
     11 C          19.0023   71.9303   -3.3445 C.3     1  UNL1        0.1764
     12 C          17.7220   71.3309   -5.2190 C.3     1  UNL1        0.2383
     13 H          16.4651   70.2786   -2.1824 H       1  UNL1        0.2105
     14 H          17.0513   68.4282   -3.8480 H       1  UNL1        0.2106
     15 O          16.0556   70.2993   -7.2529 O.2     1  UNL1       -0.2464
     16 O          19.3690   70.7115  -10.4299 O.2     1  UNL1       -0.2670
     17 N          18.1234   71.1582   -6.5867 N.ar    1  UNL1       -0.2551
     18 N          17.7067   70.5055   -8.8332 N.ar    1  UNL1       -0.2743
     19 C          17.2104   70.6308   -7.5294 C.ar    1  UNL1        0.3323
     20 C          19.4095   71.5104   -6.9812 C.ar    1  UNL1        0.0869
     21 C          19.8678   71.3836   -8.2282 C.ar    1  UNL1        0.0795
     22 C          18.9772   70.8405   -9.2741 C.ar    1  UNL1        0.2626
     23 H          17.0885   70.1400   -9.5069 H       1  UNL1        0.1734
     24 O          23.1467   74.3370   -3.7078 O.3     1  UNL1       -0.2703
     25 P          23.9251   75.5240   -4.4812 P.3     1  UNL1        0.2208
     26 O          23.6615   76.8144   -3.5415 O.co2   1  UNL1       -0.4371
     27 O          23.5071   75.7040   -5.9118 O.2     1  UNL1       -0.5170
     28 O          25.4902   75.1856   -4.2792 O.3     1  UNL1       -0.2858
     29 O          27.2797   76.2790   -3.1752 O.3     1  UNL1       -0.3258
     30 O          29.2354   75.1333   -6.6268 O.3     1  UNL1       -0.3794
     31 O          29.8132   73.7876   -4.1564 O.3     1  UNL1       -0.3794
     32 O          26.4906   76.0436   -6.7567 O.3     1  UNL1       -0.3775
     33 C          28.2982   74.9999   -5.5548 C.3     1  UNL1        0.1715
     34 C          29.0741   75.0031   -4.2362 C.3     1  UNL1        0.1694
     35 C          27.3151   76.1681   -5.6030 C.3     1  UNL1        0.1967
     36 C          28.1264   75.1321   -3.0361 C.3     1  UNL1        0.1761
     37 C          26.4538   76.2339   -4.3404 C.3     1  UNL1        0.2704
     38 H          29.8622   74.3944   -6.6022 H       1  UNL1        0.2105
     39 H          30.4074   73.7182   -4.9202 H       1  UNL1        0.2105
     40 H          27.0476   76.0033   -7.5492 H       1  UNL1        0.2106
     41 O          29.6217   74.1107   -1.4773 O.3     1  UNL1       -0.3794
     42 C          28.8868   75.2958   -1.7219 C.3     1  UNL1        0.1693
     43 H          30.1110   74.2006   -0.6441 H       1  UNL1        0.2105
@<TRIPOS>UNITY_ATOM_ATTR
2 1
charge -1
26 1
charge -1
@<TRIPOS>BOND
     1    25    28    1
     2    25    24    1
     3    25    26    1
     4    25    27    2
     5     1     4    1
     6     1    24    1
     7     1     2    1
     8     1     3    2
     9     6    11    1
    10     6    12    1
    11    29    36    1
    12    29    37    1
    13     7     9    1
    14     7    13    1
    15     8    10    1
    16     8    14    1
    17    28    37    1
    18     4     5    1
    19    30    33    1
    20    30    38    1
    21    31    34    1
    22    31    39    1
    23    32    35    1
    24    32    40    1
    25    41    42    1
    26    41    43    1
    27    15    19    2
    28    16    22    2
    29    17    12    1
    30    17    19   ar
    31    17    20   ar
    32    18    19   ar
    33    18    22   ar
    34    18    23    1
    35     9    10    1
    36     9    11    1
    37    10    12    1
    38    11     5    1
    39    33    34    1
    40    33    35    1
    41    34    36    1
    42    35    37    1
    43    36    42    1
    44    20    21   ar
    45    21    22   ar
@<TRIPOS>MOLECULE
*****
 43 45 0 0 0
SMALL
GASTEIGER

@<TRIPOS>ATOM
      1 P          22.3022   73.3606   -5.3161 P.3     1  UNL1        0.2189
      2 O          22.7235   74.7716   -5.9862 O.co2   1  UNL1       -0.4371
      3 O          23.4340   72.5833   -4.7110 O.2     1  UNL1       -0.5170
      4 O          21.4778   72.6058   -6.4859 O.3     1  UNL1       -0.3112
      5 C          20.8390   73.3911   -7.4775 C.3     1  UNL1        0.1811
      6 O          19.9926   71.1761   -7.8665 O.3     1  UNL1       -0.3308
      7 O          18.4872   72.3589  -10.1742 O.3     1  UNL1       -0.3794
      8 O          16.5668   72.1669   -8.2476 O.3     1  UNL1       -0.3779
      9 C          18.7808   72.9306   -8.9005 C.3     1  UNL1        0.1713
     10 C          17.9097   72.3062   -7.8305 C.3     1  UNL1        0.1895
     11 C          20.1725   72.4675   -8.4880 C.3     1  UNL1        0.1764
     12 C          18.5945   70.9684   -7.6078 C.3     1  UNL1        0.2383
     13 H          17.6032   72.6408  -10.4589 H       1  UNL1        0.2105
     14 H          16.1752   73.0450   -8.3758 H       1  UNL1        0.2106
     15 O          16.2570   69.7249   -6.6238 O.2     1  UNL1       -0.2464
     16 O          18.0958   69.1692   -2.4344 O.2     1  UNL1       -0.2670
     17 N          18.4352   70.4886   -6.2640 N.ar    1  UNL1       -0.2551
     18 N          17.1746   69.4491   -4.5387 N.ar    1  UNL1       -0.2743
     19 C          17.2205   69.8801   -5.8706 C.ar    1  UNL1        0.3323
     20 C          19.4764   70.6234   -5.3521 C.ar    1  UNL1        0.0869
     21 C          19.4162   70.2082   -4.0851 C.ar    1  UNL1        0.0795
     22 C          18.1823   69.5616   -3.5939 C.ar    1  UNL1        0.2626
     23 H          16.3380   69.0224   -4.2421 H       1  UNL1        0.1734
     24 O          21.1439   73.7857   -4.2717 O.3     1  UNL1       -0.2703
     25 P          21.2323   74.3304   -2.7523 P.3     1  UNL1        0.2208
     26 O          19.7519   74.9254   -2.4847 O.co2   1  UNL1       -0.4371
     27 O          22.3456   75.3088   -2.5131 O.2     1  UNL1       -0.5170
     28 O          21.3064   72.9980   -1.8444 O.3     1  UNL1       -0.2858
     29 O          22.9605   73.3711   -0.1888 O.3     1  UNL1       -0.3258
     30 O          21.9669   69.4719    0.7383 O.3     1  UNL1       -0.3794
     31 O          21.1312   71.5997    2.4767 O.3     1  UNL1       -0.3794
     32 O          22.0935   70.3107   -2.0293 O.3     1  UNL1       -0.3775
     33 C          21.7199   70.8097    0.2972 C.3     1  UNL1        0.1715
     34 C          22.0881   71.7652    1.4340 C.3     1  UNL1        0.1694
     35 C          22.5706   71.0926   -0.9396 C.3     1  UNL1        0.1967
     36 C          22.1049   73.2215    0.9502 C.3     1  UNL1        0.1761
     37 C          22.5575   72.5775   -1.3067 C.3     1  UNL1        0.2704
     38 H          21.4294   69.2857    1.5232 H       1  UNL1        0.2105
     39 H          21.1303   70.6759    2.7728 H       1  UNL1        0.2105
     40 H          22.1070   69.3728   -1.7845 H       1  UNL1        0.2106
     41 O          23.5761   75.0401    1.4369 O.3     1  UNL1       -0.3794
     42 C          22.6220   74.1752    2.0250 C.3     1  UNL1        0.1693
     43 H          23.9137   75.6531    2.1092 H       1  UNL1        0.2105
@<TRIPOS>UNITY_ATOM_ATTR
2 1
charge -1
26 1
charge -1
@<TRIPOS>BOND
     1    25    28    1
     2    25    24    1
     3    25    26    1
     4    25    27    2
     5     1     4    1
     6     1    24    1
     7     1     2    1
     8     1     3    2
     9     6    11    1
    10     6    12    1
    11    29    36    1
    12    29    37    1
    13     7     9    1
    14     7    13    1
    15     8    10    1
    16     8    14    1
    17    28    37    1
    18     4     5    1
    19    30    33    1
    20    30    38    1
    21    31    34    1
    22    31    39    1
    23    32    35    1
    24    32    40    1
    25    41    42    1
    26    41    43    1
    27    15    19    2
    28    16    22    2
    29    17    12    1
    30    17    19   ar
    31    17    20   ar
    32    18    19   ar
    33    18    22   ar
    34    18    23    1
    35     9    10    1
    36     9    11    1
    37    10    12    1
    38    11     5    1
    39    33    34    1
    40    33    35    1
    41    34    36    1
    42    35    37    1
    43    36    42    1
    44    20    21   ar
    45    21    22   ar
@<TRIPOS>MOLECULE
*****
 43 45 0 0 0
SMALL
GASTEIGER

@<TRIPOS>ATOM
      1 P          23.0562   72.5115   -3.6113 P.3     1  UNL1        0.2189
      2 O          23.2505   70.9714   -3.1554 O.co2   1  UNL1       -0.4371
      3 O          24.3194   73.2211   -4.0014 O.2     1  UNL1       -0.5170
      4 O          22.2249   73.1755   -2.3923 O.3     1  UNL1       -0.3112
      5 C          22.3747   72.6275   -1.0943 C.3     1  UNL1        0.1811
      6 O          21.3346   72.6002    1.0717 O.3     1  UNL1       -0.3308
      7 O          19.0582   74.0721   -0.2098 O.3     1  UNL1       -0.3794
      8 O          20.4120   76.0660    1.0663 O.3     1  UNL1       -0.3779
      9 C          20.4579   74.1775   -0.4643 C.3     1  UNL1        0.1713
     10 C          21.1421   74.9262    0.6604 C.3     1  UNL1        0.1895
     11 C          21.0644   72.7858   -0.3351 C.3     1  UNL1        0.1764
     12 C          21.2191   73.8646    1.7445 C.3     1  UNL1        0.2383
     13 H          18.6488   74.9487   -0.2869 H       1  UNL1        0.2105
     14 H          20.3916   76.7116    0.3428 H       1  UNL1        0.2106
     15 O          21.3282   73.0232    4.4386 O.2     1  UNL1       -0.2464
     16 O          25.6308   74.5952    4.9464 O.2     1  UNL1       -0.2670
     17 N          22.3556   74.0410    2.6039 N.ar    1  UNL1       -0.2551
     18 N          23.4706   73.8065    4.6892 N.ar    1  UNL1       -0.2743
     19 C          22.3075   73.5832    3.9413 C.ar    1  UNL1        0.3323
     20 C          23.5016   74.6617    2.1188 C.ar    1  UNL1        0.0869
     21 C          24.6020   74.8682    2.8453 C.ar    1  UNL1        0.0795
     22 C          24.6341   74.4198    4.2524 C.ar    1  UNL1        0.2626
     23 H          23.4600   73.4963    5.6238 H       1  UNL1        0.1734
     24 O          21.9531   72.4057   -4.7882 O.3     1  UNL1       -0.2703
     25 P          21.6979   73.3293   -6.0900 P.3     1  UNL1        0.2208
     26 O          22.7864   72.7803   -7.1536 O.co2   1  UNL1       -0.4371
     27 O          21.7814   74.8045   -5.8239 O.2     1  UNL1       -0.5170
     28 O          20.2755   72.8337   -6.6699 O.3     1  UNL1       -0.2858
     29 O          18.7601   71.2469   -5.7743 O.3     1  UNL1       -0.3258
     30 O          18.2060   70.4916   -9.7959 O.3     1  UNL1       -0.3794
     31 O          16.1540   71.8459   -8.3116 O.3     1  UNL1       -0.3794
     32 O          20.8539   71.0889   -8.7903 O.3     1  UNL1       -0.3775
     33 C          18.4592   71.3023   -8.6452 C.3     1  UNL1        0.1715
     34 C          17.2597   71.1851   -7.7027 C.3     1  UNL1        0.1694
     35 C          19.7324   70.8110   -7.9589 C.3     1  UNL1        0.1967
     36 C          17.5674   71.8084   -6.3345 C.3     1  UNL1        0.1761
     37 C          19.9183   71.4566   -6.5846 C.3     1  UNL1        0.2704
     38 H          17.3991   70.7986  -10.2366 H       1  UNL1        0.2105
     39 H          15.9704   71.4431   -9.1749 H       1  UNL1        0.2105
     40 H          20.7242   70.6746   -9.6572 H       1  UNL1        0.2106
     41 O          15.4539   72.5591   -5.5106 O.3     1  UNL1       -0.3794
     42 C          16.4443   71.5638   -5.3290 C.3     1  UNL1        0.1693
     43 H          14.7326   72.4158   -4.8775 H       1  UNL1        0.2105
@<TRIPOS>UNITY_ATOM_ATTR
2 1
charge -1
26 1
charge -1
@<TRIPOS>BOND
     1    25    28    1
     2    25    24    1
     3    25    26    1
     4    25    27    2
     5     1     4    1
     6     1    24    1
     7     1     2    1
     8     1     3    2
     9     6    11    1
    10     6    12    1
    11    29    36    1
    12    29    37    1
    13     7     9    1
    14     7    13    1
    15     8    10    1
    16     8    14    1
    17    28    37    1
    18     4     5    1
    19    30    33    1
    20    30    38    1
    21    31    34    1
    22    31    39    1
    23    32    35    1
    24    32    40    1
    25    41    42    1
    26    41    43    1
    27    15    19    2
    28    16    22    2
    29    17    12    1
    30    17    19   ar
    31    17    20   ar
    32    18    19   ar
    33    18    22   ar
    34    18    23    1
    35     9    10    1
    36     9    11    1
    37    10    12    1
    38    11     5    1
    39    33    34    1
    40    33    35    1
    41    34    36    1
    42    35    37    1
    43    36    42    1
    44    20    21   ar
    45    21    22   ar
@<TRIPOS>MOLECULE
*****
 43 45 0 0 0
SMALL
GASTEIGER

@<TRIPOS>ATOM
      1 P          21.6477   74.8825   -7.0792 P.3     1  UNL1        0.2189
      2 O          20.8783   76.2506   -7.4712 O.co2   1  UNL1       -0.4371
      3 O          23.0681   75.0607   -6.6297 O.2     1  UNL1       -0.5170
      4 O          21.4335   73.9326   -8.3714 O.3     1  UNL1       -0.3112
      5 C          21.4095   72.5286   -8.1819 C.3     1  UNL1        0.1811
      6 O          19.7997   70.7564   -8.3865 O.3     1  UNL1       -0.3308
      7 O          18.4533   72.4701  -10.4459 O.3     1  UNL1       -0.3794
      8 O          16.9132   72.8794   -8.2330 O.3     1  UNL1       -0.3779
      9 C          19.1227   72.8580   -9.2473 C.3     1  UNL1        0.1713
     10 C          18.2692   72.5323   -8.0394 C.3     1  UNL1        0.1895
     11 C          20.3149   71.9292   -9.0540 C.3     1  UNL1        0.1764
     12 C          18.4752   71.0332   -7.9030 C.3     1  UNL1        0.2383
     13 H          17.6882   73.0494  -10.5907 H       1  UNL1        0.2105
     14 H          16.8343   73.8427   -8.3141 H       1  UNL1        0.2106
     15 O          16.1098   70.0388   -6.7223 O.2     1  UNL1       -0.2464
     16 O          18.2007   69.3554   -2.6724 O.2     1  UNL1       -0.2670
     17 N          18.3732   70.5880   -6.5418 N.ar    1  UNL1       -0.2551
     18 N          17.1529   69.6992   -4.7068 N.ar    1  UNL1       -0.2743
     19 C          17.1386   70.1072   -6.0467 C.ar    1  UNL1        0.3323
     20 C          19.4893   70.6304   -5.7133 C.ar    1  UNL1        0.0869
     21 C          19.4860   70.2387   -4.4375 C.ar    1  UNL1        0.0795
     22 C          18.2361   69.7232   -3.8426 C.ar    1  UNL1        0.2626
     23 H          16.3039   69.3609   -4.3400 H       1  UNL1        0.1734
     24 O          20.6708   74.2196   -5.9751 O.3     1  UNL1       -0.2703
     25 P          20.2508   74.7154   -4.4950 P.3     1  UNL1        0.2208
     26 O          18.6363   74.6123   -4.5133 O.co2   1  UNL1       -0.4371
     27 O          20.7806   76.0710   -4.1266 O.2     1  UNL1       -0.5170
     28 O          20.7242   73.5234   -3.5152 O.3     1  UNL1       -0.2858
     29 O          21.8102   73.4861   -1.4090 O.3     1  UNL1       -0.3258
     30 O          23.8176   70.3776   -3.2416 O.3     1  UNL1       -0.3794
     31 O          21.9036   69.8082   -1.1776 O.3     1  UNL1       -0.3794
     32 O          23.1114   72.7367   -4.7633 O.3     1  UNL1       -0.3775
     33 C          22.6909   71.2086   -2.9496 C.3     1  UNL1        0.1715
     34 C          22.4018   71.1150   -1.4501 C.3     1  UNL1        0.1694
     35 C          23.0159   72.6476   -3.3457 C.3     1  UNL1        0.1967
     36 C          21.3829   72.1769   -1.0150 C.3     1  UNL1        0.1761
     37 C          21.9653   73.6286   -2.8224 C.3     1  UNL1        0.2704
     38 H          23.6176   69.4624   -2.9929 H       1  UNL1        0.2105
     39 H          22.5562   69.1472   -1.4574 H       1  UNL1        0.2105
     40 H          23.7799   72.1112   -5.0821 H       1  UNL1        0.2106
     41 O          21.4824   70.9161    1.0122 O.3     1  UNL1       -0.3794
     42 C          21.1982   72.2052    0.5006 C.3     1  UNL1        0.1693
     43 H          21.3693   70.9192    1.9760 H       1  UNL1        0.2105
@<TRIPOS>UNITY_ATOM_ATTR
2 1
charge -1
26 1
charge -1
@<TRIPOS>BOND
     1    25    28    1
     2    25    24    1
     3    25    26    1
     4    25    27    2
     5     1     4    1
     6     1    24    1
     7     1     2    1
     8     1     3    2
     9     6    11    1
    10     6    12    1
    11    29    36    1
    12    29    37    1
    13     7     9    1
    14     7    13    1
    15     8    10    1
    16     8    14    1
    17    28    37    1
    18     4     5    1
    19    30    33    1
    20    30    38    1
    21    31    34    1
    22    31    39    1
    23    32    35    1
    24    32    40    1
    25    41    42    1
    26    41    43    1
    27    15    19    2
    28    16    22    2
    29    17    12    1
    30    17    19   ar
    31    17    20   ar
    32    18    19   ar
    33    18    22   ar
    34    18    23    1
    35     9    10    1
    36     9    11    1
    37    10    12    1
    38    11     5    1
    39    33    34    1
    40    33    35    1
    41    34    36    1
    42    35    37    1
    43    36    42    1
    44    20    21   ar
    45    21    22   ar
@<TRIPOS>MOLECULE
*****
 43 45 0 0 0
SMALL
GASTEIGER

@<TRIPOS>ATOM
      1 P          22.4788   72.8465   -4.6730 P.3     1  UNL1        0.2189
      2 O          23.9244   72.5770   -3.9984 O.co2   1  UNL1       -0.4371
      3 O          22.4937   72.9937   -6.1661 O.2     1  UNL1       -0.5170
      4 O          21.8948   74.1101   -3.8482 O.3     1  UNL1       -0.3112
      5 C          22.7977   75.1168   -3.4248 C.3     1  UNL1        0.1811
      6 O          21.3678   74.9791   -1.4987 O.3     1  UNL1       -0.3308
      7 O          22.5903   77.5783   -0.6380 O.3     1  UNL1       -0.3794
      8 O          23.9216   75.7585    0.8958 O.3     1  UNL1       -0.3779
      9 C          23.1956   76.4756   -1.3110 C.3     1  UNL1        0.1713
     10 C          23.4108   75.3261   -0.3487 C.3     1  UNL1        0.1895
     11 C          22.1700   75.8946   -2.2763 C.3     1  UNL1        0.1764
     12 C          22.0122   74.7435   -0.2361 C.3     1  UNL1        0.2383
     13 H          23.2265   77.9661   -0.0161 H       1  UNL1        0.2105
     14 H          24.8127   76.1207    0.7716 H       1  UNL1        0.2106
     15 O          20.7310   73.5121    1.9594 O.2     1  UNL1       -0.2464
     16 O          22.1350   69.3186    0.6613 O.2     1  UNL1       -0.2670
     17 N          22.0264   73.3315    0.0238 N.ar    1  UNL1       -0.2551
     18 N          21.4310   71.4251    1.3111 N.ar    1  UNL1       -0.2743
     19 C          21.3522   72.8148    1.1547 C.ar    1  UNL1        0.3323
     20 C          22.7031   72.4750   -0.8378 C.ar    1  UNL1        0.0869
     21 C          22.7697   71.1522   -0.6739 C.ar    1  UNL1        0.0795
     22 C          22.0921   70.5320    0.4829 C.ar    1  UNL1        0.2626
     23 H          20.9691   71.0426    2.0923 H       1  UNL1        0.1734
     24 O          21.5875   71.6132   -4.1274 O.3     1  UNL1       -0.2703
     25 P          20.0660   71.1766   -4.4550 P.3     1  UNL1        0.2208
     26 O          19.1914   72.3937   -3.8457 O.co2   1  UNL1       -0.4371
     27 O          19.6888   69.8207   -3.9322 O.2     1  UNL1       -0.5170
     28 O          19.9301   71.3381   -6.0551 O.3     1  UNL1       -0.2858
     29 O          17.6010   71.1199   -6.4351 O.3     1  UNL1       -0.3258
     30 O          18.8312   71.8883  -10.3013 O.3     1  UNL1       -0.3794
     31 O          17.4189   73.9131   -8.8338 O.3     1  UNL1       -0.3794
     32 O          20.4492   70.2195   -8.5759 O.3     1  UNL1       -0.3775
     33 C          18.8622   72.0063   -8.8763 C.3     1  UNL1        0.1715
     34 C          17.5122   72.5556   -8.4111 C.3     1  UNL1        0.1694
     35 C          19.1215   70.6298   -8.2670 C.3     1  UNL1        0.1967
     36 C          17.3710   72.4599   -6.8860 C.3     1  UNL1        0.1761
     37 C          18.9065   70.6330   -6.7524 C.3     1  UNL1        0.2704
     38 H          18.6674   72.7590  -10.6944 H       1  UNL1        0.2105
     39 H          17.5101   73.9597   -9.7985 H       1  UNL1        0.2105
     40 H          20.5725   70.2214   -9.5375 H       1  UNL1        0.2106
     41 O          15.7300   72.2402   -5.1633 O.3     1  UNL1       -0.3794
     42 C          15.9731   72.8552   -6.4151 C.3     1  UNL1        0.1693
     43 H          14.8439   72.4832   -4.8510 H       1  UNL1        0.2105
@<TRIPOS>UNITY_ATOM_ATTR
2 1
charge -1
26 1
charge -1
@<TRIPOS>BOND
     1    25    28    1
     2    25    24    1
     3    25    26    1
     4    25    27    2
     5     1     4    1
     6     1    24    1
     7     1     2    1
     8     1     3    2
     9     6    11    1
    10     6    12    1
    11    29    36    1
    12    29    37    1
    13     7     9    1
    14     7    13    1
    15     8    10    1
    16     8    14    1
    17    28    37    1
    18     4     5    1
    19    30    33    1
    20    30    38    1
    21    31    34    1
    22    31    39    1
    23    32    35    1
    24    32    40    1
    25    41    42    1
    26    41    43    1
    27    15    19    2
    28    16    22    2
    29    17    12    1
    30    17    19   ar
    31    17    20   ar
    32    18    19   ar
    33    18    22   ar
    34    18    23    1
    35     9    10    1
    36     9    11    1
    37    10    12    1
    38    11     5    1
    39    33    34    1
    40    33    35    1
    41    34    36    1
    42    35    37    1
    43    36    42    1
    44    20    21   ar
    45    21    22   ar
@<TRIPOS>MOLECULE
*****
 43 45 0 0 0
SMALL
GASTEIGER

@<TRIPOS>ATOM
      1 P          19.1643   70.4642   -3.2609 P.3     1  UNL1        0.2189
      2 O          18.9911   69.0433   -2.5069 O.co2   1  UNL1       -0.4371
      3 O          18.7106   71.6586   -2.4742 O.2     1  UNL1       -0.5170
      4 O          18.4294   70.2403   -4.6849 O.3     1  UNL1       -0.3112
      5 C          19.0519   70.7446   -5.8536 C.3     1  UNL1        0.1811
      6 O          18.6500   72.9434   -6.7354 O.3     1  UNL1       -0.3308
      7 O          16.5087   71.6770   -8.4092 O.3     1  UNL1       -0.3794
      8 O          18.5691   71.9366  -10.1767 O.3     1  UNL1       -0.3779
      9 C          17.7757   71.1518   -8.0166 C.3     1  UNL1        0.1713
     10 C          18.8864   71.8135   -8.8053 C.3     1  UNL1        0.1895
     11 C          18.0633   71.6305   -6.5991 C.3     1  UNL1        0.1764
     12 C          19.0078   73.1590   -8.1103 C.3     1  UNL1        0.2383
     13 H          16.3031   71.3843   -9.3115 H       1  UNL1        0.2105
     14 H          18.5029   71.0541  -10.5739 H       1  UNL1        0.2106
     15 O          21.3520   71.5882   -7.9857 O.2     1  UNL1       -0.2464
     16 O          24.0723   75.2919   -8.3383 O.2     1  UNL1       -0.2670
     17 N          20.3419   73.6867   -8.1677 N.ar    1  UNL1       -0.2551
     18 N          22.7046   73.4336   -8.1615 N.ar    1  UNL1       -0.2743
     19 C          21.4510   72.8120   -8.0958 C.ar    1  UNL1        0.3323
     20 C          20.5401   75.0573   -8.2942 C.ar    1  UNL1        0.0869
     21 C          21.7420   75.6344   -8.3541 C.ar    1  UNL1        0.0795
     22 C          22.9531   74.7914   -8.2859 C.ar    1  UNL1        0.2626
     23 H          23.4919   72.8441   -8.1130 H       1  UNL1        0.1734
     24 O          20.7311   70.4761   -3.6585 O.3     1  UNL1       -0.2703
     25 P          21.9821   71.2766   -3.0205 P.3     1  UNL1        0.2208
     26 O          21.7827   72.7821   -3.5784 O.co2   1  UNL1       -0.4371
     27 O          23.3214   70.6734   -3.3310 O.2     1  UNL1       -0.5170
     28 O          21.6426   71.3771   -1.4459 O.3     1  UNL1       -0.2858
     29 O          23.2255   72.8454   -0.4686 O.3     1  UNL1       -0.3258
     30 O          21.1825   71.7160    2.9375 O.3     1  UNL1       -0.3794
     31 O          20.8253   74.3629    1.8820 O.3     1  UNL1       -0.3794
     32 O          21.7049   69.7732    0.8560 O.3     1  UNL1       -0.3775
     33 C          21.3256   72.0472    1.5536 C.3     1  UNL1        0.1715
     34 C          21.8577   73.4783    1.4555 C.3     1  UNL1        0.1694
     35 C          22.2992   71.0659    0.9035 C.3     1  UNL1        0.1967
     36 C          22.2886   73.8120    0.0209 C.3     1  UNL1        0.1761
     37 C          22.7013   71.5165   -0.5019 C.3     1  UNL1        0.2704
     38 H          20.5651   72.3350    3.3560 H       1  UNL1        0.2105
     39 H          20.5620   74.1412    2.7890 H       1  UNL1        0.2105
     40 H          21.4551   69.4992    1.7518 H       1  UNL1        0.2106
     41 O          22.9819   75.5828   -1.4257 O.3     1  UNL1       -0.3794
     42 C          22.9675   75.1769   -0.0694 C.3     1  UNL1        0.1693
     43 H          23.4109   76.4502   -1.4984 H       1  UNL1        0.2105
@<TRIPOS>UNITY_ATOM_ATTR
2 1
charge -1
26 1
charge -1
@<TRIPOS>BOND
     1    25    28    1
     2    25    24    1
     3    25    26    1
     4    25    27    2
     5     1     4    1
     6     1    24    1
     7     1     2    1
     8     1     3    2
     9     6    11    1
    10     6    12    1
    11    29    36    1
    12    29    37    1
    13     7     9    1
    14     7    13    1
    15     8    10    1
    16     8    14    1
    17    28    37    1
    18     4     5    1
    19    30    33    1
    20    30    38    1
    21    31    34    1
    22    31    39    1
    23    32    35    1
    24    32    40    1
    25    41    42    1
    26    41    43    1
    27    15    19    2
    28    16    22    2
    29    17    12    1
    30    17    19   ar
    31    17    20   ar
    32    18    19   ar
    33    18    22   ar
    34    18    23    1
    35     9    10    1
    36     9    11    1
    37    10    12    1
    38    11     5    1
    39    33    34    1
    40    33    35    1
    41    34    36    1
    42    35    37    1
    43    36    42    1
    44    20    21   ar
    45    21    22   ar
@<TRIPOS>MOLECULE
*****
 43 45 0 0 0
SMALL
GASTEIGER

@<TRIPOS>ATOM
      1 P          18.7899   70.4367   -3.9576 P.3     1  UNL1        0.2189
      2 O          19.4752   69.1161   -4.5931 O.co2   1  UNL1       -0.4371
      3 O          17.6847   70.1686   -2.9788 O.2     1  UNL1       -0.5170
      4 O          18.3851   71.3238   -5.2487 O.3     1  UNL1       -0.3112
      5 C          19.2810   71.3695   -6.3456 C.3     1  UNL1        0.1811
      6 O          17.1345   71.1250   -7.3973 O.3     1  UNL1       -0.3308
      7 O          18.6335   70.9385   -9.9875 O.3     1  UNL1       -0.3794
      8 O          17.7408   73.5152  -10.0015 O.3     1  UNL1       -0.3779
      9 C          18.9157   71.7335   -8.8370 C.3     1  UNL1        0.1713
     10 C          17.9467   72.8940   -8.7492 C.3     1  UNL1        0.1895
     11 C          18.5493   70.9191   -7.6025 C.3     1  UNL1        0.1764
     12 C          16.6935   72.2187   -8.2184 C.3     1  UNL1        0.2383
     13 H          18.8598   71.4376  -10.7885 H       1  UNL1        0.2105
     14 H          18.5663   73.9302  -10.2964 H       1  UNL1        0.2106
     15 O          14.8276   74.0584   -9.2728 O.2     1  UNL1       -0.2464
     16 O          13.6643   75.5643   -5.0752 O.2     1  UNL1       -0.2670
     17 N          15.8891   73.1036   -7.4239 N.ar    1  UNL1       -0.2551
     18 N          14.2498   74.8066   -7.1819 N.ar    1  UNL1       -0.2743
     19 C          14.9832   73.9897   -8.0519 C.ar    1  UNL1        0.3323
     20 C          16.0027   73.0868   -6.0380 C.ar    1  UNL1        0.0869
     21 C          15.2970   73.8731   -5.2226 C.ar    1  UNL1        0.0795
     22 C          14.3281   74.8279   -5.7984 C.ar    1  UNL1        0.2626
     23 H          13.6126   75.4323   -7.5969 H       1  UNL1        0.1734
     24 O          20.0508   71.2414   -3.3447 O.3     1  UNL1       -0.2703
     25 P          21.3173   70.7306   -2.4798 P.3     1  UNL1        0.2208
     26 O          22.5751   71.0273   -3.4531 O.co2   1  UNL1       -0.4371
     27 O          21.2133   69.3055   -2.0192 O.2     1  UNL1       -0.5170
     28 O          21.4603   71.8099   -1.2883 O.3     1  UNL1       -0.2858
     29 O          23.2260   73.0517   -0.3103 O.3     1  UNL1       -0.3258
     30 O          21.3894   71.6944    3.1300 O.3     1  UNL1       -0.3794
     31 O          21.1506   74.4595    2.3915 O.3     1  UNL1       -0.3794
     32 O          21.5885   69.9618    0.8196 O.3     1  UNL1       -0.3775
     33 C          21.4432   72.1655    1.7807 C.3     1  UNL1        0.1715
     34 C          22.0736   73.5596    1.7844 C.3     1  UNL1        0.1694
     35 C          22.2820   71.1984    0.9474 C.3     1  UNL1        0.1967
     36 C          22.4094   74.0194    0.3593 C.3     1  UNL1        0.1761
     37 C          22.6005   71.7729   -0.4341 C.3     1  UNL1        0.2704
     38 H          20.8578   72.3038    3.6644 H       1  UNL1        0.2105
     39 H          20.9466   74.1574    3.2906 H       1  UNL1        0.2105
     40 H          21.3929   69.6083    1.7008 H       1  UNL1        0.2106
     41 O          24.4945   75.0918    0.8188 O.3     1  UNL1       -0.3794
     42 C          23.1812   75.3371    0.3505 C.3     1  UNL1        0.1693
     43 H          24.9976   75.9216    0.8183 H       1  UNL1        0.2105
@<TRIPOS>UNITY_ATOM_ATTR
2 1
charge -1
26 1
charge -1
@<TRIPOS>BOND
     1    25    28    1
     2    25    24    1
     3    25    26    1
     4    25    27    2
     5     1     4    1
     6     1    24    1
     7     1     2    1
     8     1     3    2
     9     6    11    1
    10     6    12    1
    11    29    36    1
    12    29    37    1
    13     7     9    1
    14     7    13    1
    15     8    10    1
    16     8    14    1
    17    28    37    1
    18     4     5    1
    19    30    33    1
    20    30    38    1
    21    31    34    1
    22    31    39    1
    23    32    35    1
    24    32    40    1
    25    41    42    1
    26    41    43    1
    27    15    19    2
    28    16    22    2
    29    17    12    1
    30    17    19   ar
    31    17    20   ar
    32    18    19   ar
    33    18    22   ar
    34    18    23    1
    35     9    10    1
    36     9    11    1
    37    10    12    1
    38    11     5    1
    39    33    34    1
    40    33    35    1
    41    34    36    1
    42    35    37    1
    43    36    42    1
    44    20    21   ar
    45    21    22   ar
@<TRIPOS>MOLECULE
*****
 43 45 0 0 0
SMALL
GASTEIGER

@<TRIPOS>ATOM
      1 P          22.9103   72.0523   -3.3686 P.3     1  UNL1        0.2189
      2 O          23.8189   72.9904   -4.3235 O.co2   1  UNL1       -0.4371
      3 O          23.3772   70.6316   -3.2464 O.2     1  UNL1       -0.5170
      4 O          21.4103   72.2522   -3.9412 O.3     1  UNL1       -0.3112
      5 C          20.6819   71.1055   -4.3440 C.3     1  UNL1        0.1811
      6 O          18.4853   71.8384   -3.7025 O.3     1  UNL1       -0.3308
      7 O          18.2328   69.2163   -2.2701 O.3     1  UNL1       -0.3794
      8 O          16.8244   68.7786   -4.5639 O.3     1  UNL1       -0.3779
      9 C          18.8861   69.5112   -3.5036 C.3     1  UNL1        0.1713
     10 C          17.8647   69.7343   -4.5993 C.3     1  UNL1        0.1895
     11 C          19.5246   70.8889   -3.3787 C.3     1  UNL1        0.1764
     12 C          17.3773   71.1405   -4.2943 C.3     1  UNL1        0.2383
     13 H          17.8176   68.3408   -2.3255 H       1  UNL1        0.2105
     14 H          17.1848   67.9007   -4.7642 H       1  UNL1        0.2106
     15 O          18.5045   70.7662   -6.8570 O.2     1  UNL1       -0.2464
     16 O          15.6980   73.8943   -8.7492 O.2     1  UNL1       -0.2670
     17 N          16.9601   71.8436   -5.4745 N.ar    1  UNL1       -0.2551
     18 N          17.1060   72.3239   -7.7971 N.ar    1  UNL1       -0.2743
     19 C          17.5920   71.5825   -6.7126 C.ar    1  UNL1        0.3323
     20 C          15.9348   72.7800   -5.3972 C.ar    1  UNL1        0.0869
     21 C          15.4839   73.4796   -6.4405 C.ar    1  UNL1        0.0795
     22 C          16.0904   73.2665   -7.7705 C.ar    1  UNL1        0.2626
     23 H          17.5315   72.1590   -8.6697 H       1  UNL1        0.1734
     24 O          22.8799   72.8725   -1.9760 O.3     1  UNL1       -0.2703
     25 P          22.2413   74.3103   -1.6046 P.3     1  UNL1        0.2208
     26 O          20.7533   74.2293   -2.2345 O.co2   1  UNL1       -0.4371
     27 O          23.0505   75.4835   -2.0766 O.2     1  UNL1       -0.5170
     28 O          22.0116   74.2551   -0.0080 O.3     1  UNL1       -0.2858
     29 O          20.8733   72.1795    0.1046 O.3     1  UNL1       -0.3258
     30 O          21.6223   72.7402    4.1265 O.3     1  UNL1       -0.3794
     31 O          23.0968   70.7495    2.6736 O.3     1  UNL1       -0.3794
     32 O          20.9070   74.9983    2.4624 O.3     1  UNL1       -0.3775
     33 C          21.9003   72.8199    2.7258 C.3     1  UNL1        0.1715
     34 C          21.9356   71.3979    2.1623 C.3     1  UNL1        0.1694
     35 C          20.8063   73.6408    2.0457 C.3     1  UNL1        0.1967
     36 C          21.9626   71.4107    0.6279 C.3     1  UNL1        0.1761
     37 C          20.8943   73.5462    0.5214 C.3     1  UNL1        0.2704
     38 H          22.3135   72.2206    4.5644 H       1  UNL1        0.2105
     39 H          23.0676   70.7487    3.6433 H       1  UNL1        0.2105
     40 H          20.8496   75.0447    3.4290 H       1  UNL1        0.2106
     41 O          23.0384   69.3016    0.3065 O.3     1  UNL1       -0.3794
     42 C          21.8391   70.0058    0.0421 C.3     1  UNL1        0.1693
     43 H          22.9741   68.4055   -0.0604 H       1  UNL1        0.2105
@<TRIPOS>UNITY_ATOM_ATTR
2 1
charge -1
26 1
charge -1
@<TRIPOS>BOND
     1    25    28    1
     2    25    24    1
     3    25    26    1
     4    25    27    2
     5     1     4    1
     6     1    24    1
     7     1     2    1
     8     1     3    2
     9     6    11    1
    10     6    12    1
    11    29    36    1
    12    29    37    1
    13     7     9    1
    14     7    13    1
    15     8    10    1
    16     8    14    1
    17    28    37    1
    18     4     5    1
    19    30    33    1
    20    30    38    1
    21    31    34    1
    22    31    39    1
    23    32    35    1
    24    32    40    1
    25    41    42    1
    26    41    43    1
    27    15    19    2
    28    16    22    2
    29    17    12    1
    30    17    19   ar
    31    17    20   ar
    32    18    19   ar
    33    18    22   ar
    34    18    23    1
    35     9    10    1
    36     9    11    1
    37    10    12    1
    38    11     5    1
    39    33    34    1
    40    33    35    1
    41    34    36    1
    42    35    37    1
    43    36    42    1
    44    20    21   ar
    45    21    22   ar
@<TRIPOS>MOLECULE
*****
 43 45 0 0 0
SMALL
GASTEIGER

@<TRIPOS>ATOM
      1 P          22.7477   73.8009   -5.1521 P.3     1  UNL1        0.2189
      2 O          21.2563   74.0129   -4.5621 O.co2   1  UNL1       -0.4371
      3 O          23.5539   75.0574   -5.3035 O.2     1  UNL1       -0.5170
      4 O          22.5118   72.9498   -6.5078 O.3     1  UNL1       -0.3112
      5 C          21.3069   73.1448   -7.2275 C.3     1  UNL1        0.1811
      6 O          19.2015   72.0241   -6.9361 O.3     1  UNL1       -0.3308
      7 O          20.3233   69.8618   -8.6845 O.3     1  UNL1       -0.3794
      8 O          18.7280   71.2504  -10.4060 O.3     1  UNL1       -0.3779
      9 C          20.5164   71.2734   -8.7591 C.3     1  UNL1        0.1713
     10 C          19.2736   71.9460   -9.3037 C.3     1  UNL1        0.1895
     11 C          20.5736   71.8150   -7.3361 C.3     1  UNL1        0.1764
     12 C          18.3547   71.9373   -8.0939 C.3     1  UNL1        0.2383
     13 H          20.2839   69.4932   -9.5815 H       1  UNL1        0.2105
     14 H          19.3495   71.2845  -11.1499 H       1  UNL1        0.2106
     15 O          19.0329   74.5608   -8.8908 O.2     1  UNL1       -0.2464
     16 O          14.7797   76.1164   -8.0353 O.2     1  UNL1       -0.2670
     17 N          17.4440   73.0472   -8.0898 N.ar    1  UNL1       -0.2551
     18 N          16.9146   75.3332   -8.4643 N.ar    1  UNL1       -0.2743
     19 C          17.8851   74.3242   -8.5082 C.ar    1  UNL1        0.3323
     20 C          16.1296   72.8636   -7.6745 C.ar    1  UNL1        0.0869
     21 C          15.2167   73.8365   -7.6372 C.ar    1  UNL1        0.0795
     22 C          15.5962   75.2006   -8.0582 C.ar    1  UNL1        0.2626
     23 H          17.1992   76.2313   -8.7509 H       1  UNL1        0.1734
     24 O          23.3856   72.7097   -4.1444 O.3     1  UNL1       -0.2703
     25 P          22.6859   71.6847   -3.1087 P.3     1  UNL1        0.2208
     26 O          23.6953   70.4204   -3.0990 O.co2   1  UNL1       -0.4371
     27 O          21.2649   71.3401   -3.4492 O.2     1  UNL1       -0.5170
     28 O          22.8790   72.3716   -1.6609 O.3     1  UNL1       -0.2858
     29 O          21.2235   73.2357   -0.2018 O.3     1  UNL1       -0.3258
     30 O          24.2766   75.8924    0.6173 O.3     1  UNL1       -0.3794
     31 O          23.5692   73.9018    2.5628 O.3     1  UNL1       -0.3794
     32 O          23.8567   74.9663   -2.0930 O.3     1  UNL1       -0.3775
     33 C          23.7083   74.6224    0.2863 C.3     1  UNL1        0.1715
     34 C          22.7715   74.2057    1.4219 C.3     1  UNL1        0.1694
     35 C          22.9387   74.7470   -1.0273 C.3     1  UNL1        0.1967
     36 C          21.9242   72.9899    1.0231 C.3     1  UNL1        0.1761
     37 C          22.0908   73.5044   -1.3051 C.3     1  UNL1        0.2704
     38 H          24.7671   75.8201    1.4502 H       1  UNL1        0.2105
     39 H          24.0995   74.6776    2.8039 H       1  UNL1        0.2105
     40 H          24.3873   75.7557   -1.9053 H       1  UNL1        0.2106
     41 O          21.4478   71.7646    3.0182 O.3     1  UNL1       -0.3794
     42 C          20.8731   72.6542    2.0787 C.3     1  UNL1        0.1693
     43 H          20.7902   71.5424    3.6964 H       1  UNL1        0.2105
@<TRIPOS>UNITY_ATOM_ATTR
2 1
charge -1
26 1
charge -1
@<TRIPOS>BOND
     1    25    28    1
     2    25    24    1
     3    25    26    1
     4    25    27    2
     5     1     4    1
     6     1    24    1
     7     1     2    1
     8     1     3    2
     9     6    11    1
    10     6    12    1
    11    29    36    1
    12    29    37    1
    13     7     9    1
    14     7    13    1
    15     8    10    1
    16     8    14    1
    17    28    37    1
    18     4     5    1
    19    30    33    1
    20    30    38    1
    21    31    34    1
    22    31    39    1
    23    32    35    1
    24    32    40    1
    25    41    42    1
    26    41    43    1
    27    15    19    2
    28    16    22    2
    29    17    12    1
    30    17    19   ar
    31    17    20   ar
    32    18    19   ar
    33    18    22   ar
    34    18    23    1
    35     9    10    1
    36     9    11    1
    37    10    12    1
    38    11     5    1
    39    33    34    1
    40    33    35    1
    41    34    36    1
    42    35    37    1
    43    36    42    1
    44    20    21   ar
    45    21    22   ar
@<TRIPOS>MOLECULE
*****
 43 45 0 0 0
SMALL
GASTEIGER

@<TRIPOS>ATOM
      1 P          22.4979   72.9828   -4.6747 P.3     1  UNL1        0.2189
      2 O          21.5993   74.3013   -4.4071 O.co2   1  UNL1       -0.4371
      3 O          23.8931   73.0447   -4.1259 O.2     1  UNL1       -0.5170
      4 O          22.3807   72.7503   -6.2716 O.3     1  UNL1       -0.3112
      5 C          21.1264   72.9632   -6.8955 C.3     1  UNL1        0.1811
      6 O          19.0891   71.6953   -6.7689 O.3     1  UNL1       -0.3308
      7 O          20.3511   69.8237   -8.7425 O.3     1  UNL1       -0.3794
      8 O          18.6894   71.3107  -10.3122 O.3     1  UNL1       -0.3779
      9 C          20.4605   71.2430   -8.6478 C.3     1  UNL1        0.1713
     10 C          19.1841   71.9019   -9.1279 C.3     1  UNL1        0.1895
     11 C          20.4743   71.6151   -7.1704 C.3     1  UNL1        0.1764
     12 C          18.2580   71.6968   -7.9411 C.3     1  UNL1        0.2383
     13 H          20.3407   69.5620   -9.6770 H       1  UNL1        0.2105
     14 H          19.3135   71.4686  -11.0377 H       1  UNL1        0.2106
     15 O          18.2035   74.0203   -9.5462 O.2     1  UNL1       -0.2464
     16 O          14.4711   75.6465   -7.3863 O.2     1  UNL1       -0.2670
     17 N          17.2829   72.7436   -7.8200 N.ar    1  UNL1       -0.2551
     18 N          16.3450   74.8280   -8.4696 N.ar    1  UNL1       -0.2743
     19 C          17.3451   73.8689   -8.6746 C.ar    1  UNL1        0.3323
     20 C          16.2790   72.6481   -6.8625 C.ar    1  UNL1        0.0869
     21 C          15.3335   73.5721   -6.6789 C.ar    1  UNL1        0.0795
     22 C          15.3269   74.7790   -7.5305 C.ar    1  UNL1        0.2626
     23 H          16.3685   75.6209   -9.0531 H       1  UNL1        0.1734
     24 O          21.5880   71.7933   -4.0665 O.3     1  UNL1       -0.2703
     25 P          21.9071   70.6864   -2.9325 P.3     1  UNL1        0.2208
     26 O          23.5131   70.5135   -3.0244 O.co2   1  UNL1       -0.4371
     27 O          21.1367   69.4072   -3.0872 O.2     1  UNL1       -0.5170
     28 O          21.6589   71.4517   -1.5333 O.3     1  UNL1       -0.2858
     29 O          23.2903   72.8273   -0.5023 O.3     1  UNL1       -0.3258
     30 O          21.1468   71.7207    2.8491 O.3     1  UNL1       -0.3794
     31 O          20.9240   74.4022    1.8449 O.3     1  UNL1       -0.3794
     32 O          21.6144   69.7997    0.7347 O.3     1  UNL1       -0.3775
     33 C          21.3258   72.0736    1.4747 C.3     1  UNL1        0.1715
     34 C          21.9225   73.4811    1.4147 C.3     1  UNL1        0.1694
     35 C          22.2648   71.0632    0.8182 C.3     1  UNL1        0.1967
     36 C          22.3898   73.8246   -0.0060 C.3     1  UNL1        0.1761
     37 C          22.7081   71.5242   -0.5714 C.3     1  UNL1        0.2704
     38 H          20.5512   72.3581    3.2716 H       1  UNL1        0.2105
     39 H          20.6372   74.1738    2.7431 H       1  UNL1        0.2105
     40 H          21.3389   69.5188    1.6207 H       1  UNL1        0.2106
     41 O          24.4048   74.9893    0.5344 O.3     1  UNL1       -0.3794
     42 C          23.1301   75.1594   -0.0576 C.3     1  UNL1        0.1693
     43 H          24.8875   75.8308    0.5084 H       1  UNL1        0.2105
@<TRIPOS>UNITY_ATOM_ATTR
2 1
charge -1
26 1
charge -1
@<TRIPOS>BOND
     1    25    28    1
     2    25    24    1
     3    25    26    1
     4    25    27    2
     5     1     4    1
     6     1    24    1
     7     1     2    1
     8     1     3    2
     9     6    11    1
    10     6    12    1
    11    29    36    1
    12    29    37    1
    13     7     9    1
    14     7    13    1
    15     8    10    1
    16     8    14    1
    17    28    37    1
    18     4     5    1
    19    30    33    1
    20    30    38    1
    21    31    34    1
    22    31    39    1
    23    32    35    1
    24    32    40    1
    25    41    42    1
    26    41    43    1
    27    15    19    2
    28    16    22    2
    29    17    12    1
    30    17    19   ar
    31    17    20   ar
    32    18    19   ar
    33    18    22   ar
    34    18    23    1
    35     9    10    1
    36     9    11    1
    37    10    12    1
    38    11     5    1
    39    33    34    1
    40    33    35    1
    41    34    36    1
    42    35    37    1
    43    36    42    1
    44    20    21   ar
    45    21    22   ar
@<TRIPOS>MOLECULE
*****
 43 45 0 0 0
SMALL
GASTEIGER

@<TRIPOS>ATOM
      1 P          16.8349   71.4170   -3.5036 P.3     1  UNL1        0.2189
      2 O          15.4626   71.7955   -2.7348 O.co2   1  UNL1       -0.4371
      3 O          16.7026   70.3460   -4.5461 O.2     1  UNL1       -0.5170
      4 O          17.8781   71.1071   -2.3063 O.3     1  UNL1       -0.3112
      5 C          18.9922   71.9669   -2.1408 C.3     1  UNL1        0.1811
      6 O          21.3791   72.1098   -2.3783 O.3     1  UNL1       -0.3308
      7 O          21.3243   69.1455   -2.8265 O.3     1  UNL1       -0.3794
      8 O          22.1167   69.3386   -0.2243 O.3     1  UNL1       -0.3779
      9 C          20.5209   69.9414   -1.9567 C.3     1  UNL1        0.1713
     10 C          21.3279   70.3845   -0.7542 C.3     1  UNL1        0.1895
     11 C          20.2409   71.2652   -2.6572 C.3     1  UNL1        0.1764
     12 C          22.1650   71.5117   -1.3345 C.3     1  UNL1        0.2383
     13 H          21.5159   68.2946   -2.4008 H       1  UNL1        0.2105
     14 H          21.5386   68.6463    0.1325 H       1  UNL1        0.2106
     15 O          21.1477   71.5563    1.3001 O.2     1  UNL1       -0.2464
     16 O          23.4593   75.4101    2.3229 O.2     1  UNL1       -0.2670
     17 N          22.4847   72.5149   -0.3584 N.ar    1  UNL1       -0.2551
     18 N          22.2997   73.4751    1.8073 N.ar    1  UNL1       -0.2743
     19 C          21.9195   72.4461    0.9362 C.ar    1  UNL1        0.3323
     20 C          23.3502   73.5522   -0.6886 C.ar    1  UNL1        0.0869
     21 C          23.7017   74.5264    0.1531 C.ar    1  UNL1        0.0795
     22 C          23.1554   74.5282    1.5255 C.ar    1  UNL1        0.2626
     23 H          21.9180   73.4480    2.7146 H       1  UNL1        0.1734
     24 O          17.3417   72.8450   -4.0666 O.3     1  UNL1       -0.2703
     25 P          17.0820   73.5807   -5.4823 P.3     1  UNL1        0.2208
     26 O          17.1202   75.1515   -5.0967 O.co2   1  UNL1       -0.4371
     27 O          15.8266   73.1450   -6.1810 O.2     1  UNL1       -0.5170
     28 O          18.4363   73.3348   -6.3251 O.3     1  UNL1       -0.2858
     29 O          18.9909   71.1230   -6.9710 O.3     1  UNL1       -0.3258
     30 O          22.7152   72.8695   -7.3326 O.3     1  UNL1       -0.3794
     31 O          21.2479   72.1565   -9.6962 O.3     1  UNL1       -0.3794
     32 O          20.9689   73.6307   -5.1530 O.3     1  UNL1       -0.3775
     33 C          21.2874   72.8199   -7.3986 C.3     1  UNL1        0.1715
     34 C          20.8908   71.7216   -8.3872 C.3     1  UNL1        0.1694
     35 C          20.7337   72.5167   -6.0076 C.3     1  UNL1        0.1967
     36 C          19.3866   71.4268   -8.3137 C.3     1  UNL1        0.1761
     37 C          19.2400   72.1896   -6.0532 C.3     1  UNL1        0.2704
     38 H          23.0731   73.0621   -8.2126 H       1  UNL1        0.2105
     39 H          22.2000   72.3397   -9.7290 H       1  UNL1        0.2105
     40 H          21.9179   73.8275   -5.1324 H       1  UNL1        0.2106
     41 O          18.7994   70.6759  -10.5046 O.3     1  UNL1       -0.3794
     42 C          18.9958   70.2285   -9.1759 C.3     1  UNL1        0.1693
     43 H          18.5505   69.9237  -11.0649 H       1  UNL1        0.2105
@<TRIPOS>UNITY_ATOM_ATTR
2 1
charge -1
26 1
charge -1
@<TRIPOS>BOND
     1    25    28    1
     2    25    24    1
     3    25    26    1
     4    25    27    2
     5     1     4    1
     6     1    24    1
     7     1     2    1
     8     1     3    2
     9     6    11    1
    10     6    12    1
    11    29    36    1
    12    29    37    1
    13     7     9    1
    14     7    13    1
    15     8    10    1
    16     8    14    1
    17    28    37    1
    18     4     5    1
    19    30    33    1
    20    30    38    1
    21    31    34    1
    22    31    39    1
    23    32    35    1
    24    32    40    1
    25    41    42    1
    26    41    43    1
    27    15    19    2
    28    16    22    2
    29    17    12    1
    30    17    19   ar
    31    17    20   ar
    32    18    19   ar
    33    18    22   ar
    34    18    23    1
    35     9    10    1
    36     9    11    1
    37    10    12    1
    38    11     5    1
    39    33    34    1
    40    33    35    1
    41    34    36    1
    42    35    37    1
    43    36    42    1
    44    20    21   ar
    45    21    22   ar
