@<TRIPOS>MOLECULE
UD2
 46 48 0 0 0
SMALL
GASTEIGER

@<TRIPOS>ATOM
      1 P          21.9325   70.8169   -2.6938 P.3     1  UNL1        0.2189
      2 O          21.3431   69.3278   -2.8573 O.3     1  UNL1       -0.4371
      3 O          23.3022   70.8698   -3.2507 O.2     1  UNL1       -0.5170
      4 O          20.9908   71.8565   -3.4851 O.3     1  UNL1       -0.3112
      5 C          19.9850   72.6401   -2.8402 C.3     1  UNL1        0.1811
      6 C          17.8302   71.4404   -5.4583 C.3     1  UNL1        0.2383
      7 C          17.9803   70.2360   -4.4945 C.3     1  UNL1        0.1895
      8 O          16.8031   69.4261   -4.5031 O.3     1  UNL1       -0.3779
      9 C          18.1593   70.9357   -3.1249 C.3     1  UNL1        0.1713
     10 C          18.6267   72.3584   -3.4871 C.3     1  UNL1        0.1764
     11 O          18.7446   72.4187   -4.9175 O.3     1  UNL1       -0.3308
     12 O          16.9167   70.9809   -2.4216 O.3     1  UNL1       -0.3794
     13 H          16.8485   68.6594   -3.9160 H       1  UNL1        0.2106
     14 H          16.5463   70.1112   -2.2196 H       1  UNL1        0.2105
     15 N          18.2217   71.0644   -6.8186 N.ar    1  UNL1       -0.2551
     16 C          17.2824   70.6743   -7.6986 C.ar    1  UNL1        0.3323
     17 N          17.6136   70.3229   -8.9552 N.ar    1  UNL1       -0.2743
     18 C          18.9016   70.3592   -9.3530 C.ar    1  UNL1        0.2626
     19 C          19.9006   70.7689   -8.4374 C.ar    1  UNL1        0.0795
     20 C          19.5395   71.1197   -7.1851 C.ar    1  UNL1        0.0869
     21 O          16.1170   70.6370   -7.3538 O.2     1  UNL1       -0.2464
     22 O          19.2026   70.0419  -10.4901 O.2     1  UNL1       -0.2670
     23 H          16.9240   70.0429   -9.5766 H       1  UNL1        0.1734
     24 O          21.9718   71.2104   -1.1328 O.3     1  UNL1       -0.2703
     25 P          22.5663   70.5001    0.1845 P.3     1  UNL1        0.2208
     26 O          21.5612   69.3379    0.6668 O.3     1  UNL1       -0.4371
     27 O          23.8875   69.9115   -0.1258 O.2     1  UNL1       -0.5170
     28 O          22.7267   71.5921    1.3568 O.3     1  UNL1       -0.2865
     29 C          21.8053   72.6666    1.5512 C.3     1  UNL1        0.2611
     30 C          22.4496   73.9802    1.1015 C.3     1  UNL1        0.1582
     31 C          23.6797   74.2593    1.9706 C.3     1  UNL1        0.1625
     32 C          23.2550   74.2948    3.4412 C.3     1  UNL1        0.1686
     33 C          22.5795   72.9687    3.8008 C.3     1  UNL1        0.1760
     34 O          24.2451   75.5206    1.6063 O.3     1  UNL1       -0.3801
     35 O          22.3373   75.3702    3.6476 O.3     1  UNL1       -0.3794
     36 O          21.4624   72.7550    2.9357 O.3     1  UNL1       -0.3263
     37 H          25.0300   75.7616    2.1172 H       1  UNL1        0.2105
     38 H          22.0249   75.4520    4.5596 H       1  UNL1        0.2105
     39 C          22.6284   74.8915   -1.1513 C.2     1  UNL1        0.2231
     40 C          23.0464   74.7796   -2.5940 C.3     1  UNL1        0.0946
     41 N          22.8562   73.8705   -0.3018 N.am    1  UNL1       -0.2994
     42 O          22.0862   75.9013   -0.7532 O.2     1  UNL1       -0.2751
     43 H          23.2888   73.0626   -0.6198 H       1  UNL1        0.1496
     44 C          22.0987   73.0186    5.2523 C.3     1  UNL1        0.1693
     45 O          20.6958   73.2891    5.2811 O.3     1  UNL1       -0.3794
     46 H          20.3217   73.3351    6.1716 H       1  UNL1        0.2105
@<TRIPOS>BOND
     1    29    30    1
     2    30    41    1
     3    30    31    1
     4    31    34    1
     5    31    32    1
     6    32    35    1
     7    32    33    1
     8    33    36    1
     9    33    44    1
    10    39    40    1
    11    39    42    2
    12    39    41   am
    13    41    43    1
    14    29    28    1
    15    34    37    1
    16    35    38    1
    17    29    36    1
    18    44    45    1
    19    45    46    1
    20    15     6    1
    21    15    16   ar
    22    16    21    2
    23    16    17   ar
    24    17    23    1
    25    17    18   ar
    26    18    19   ar
    27    19    20   ar
    28    15    20   ar
    29    18    22    2
    30     6     7    1
    31     6    11    1
    32     7     9    1
    33     7     8    1
    34     8    13    1
    35     9    10    1
    36     9    12    1
    37    10     5    1
    38    10    11    1
    39    12    14    1
    40     5     4    1
    41     4     1    1
    42     1     2    1
    43     1    24    1
    44     1     3    2
    45    24    25    1
    46    28    25    1
    47    25    26    1
    48    25    27    2
@<TRIPOS>MOLECULE
UD2
 46 48 0 0 0
SMALL
GASTEIGER

@<TRIPOS>ATOM
      1 P          22.8648   72.0524   -3.3617 P.3     1  UNL1        0.2189
      2 O          23.4737   70.5634   -3.3021 O.3     1  UNL1       -0.4371
      3 O          23.5467   72.8228   -4.4248 O.2     1  UNL1       -0.5170
      4 O          21.2883   71.9748   -3.6820 O.3     1  UNL1       -0.3112
      5 C          20.2835   72.0953   -2.6735 C.3     1  UNL1        0.1811
      6 C          18.0015   71.3220   -5.3439 C.3     1  UNL1        0.2383
      7 C          18.0416   70.0354   -4.4807 C.3     1  UNL1        0.1895
      8 O          16.7913   69.3458   -4.5348 O.3     1  UNL1       -0.3779
      9 C          18.2987   70.6027   -3.0631 C.3     1  UNL1        0.1713
     10 C          18.8991   71.9982   -3.3192 C.3     1  UNL1        0.1764
     11 O          19.0108   72.1614   -4.7420 O.3     1  UNL1       -0.3308
     12 O          17.0720   70.7106   -2.3390 O.3     1  UNL1       -0.3794
     13 H          16.7668   68.5336   -4.0109 H       1  UNL1        0.2106
     14 H          16.6206   69.8671   -2.2005 H       1  UNL1        0.2105
     15 N          18.3437   71.0203   -6.7356 N.ar    1  UNL1       -0.2551
     16 C          17.3663   70.7452   -7.6176 C.ar    1  UNL1        0.3323
     17 N          17.6518   70.4642   -8.9028 N.ar    1  UNL1       -0.2743
     18 C          18.9316   70.4565   -9.3277 C.ar    1  UNL1        0.2626
     19 C          19.9704   70.7453   -8.4103 C.ar    1  UNL1        0.0795
     20 C          19.6550   71.0277   -7.1288 C.ar    1  UNL1        0.0869
     21 O          16.2078   70.7488   -7.2485 O.2     1  UNL1       -0.2464
     22 O          19.1914   70.2027  -10.4908 O.2     1  UNL1       -0.2670
     23 H          16.9351   70.2669   -9.5253 H       1  UNL1        0.1734
     24 O          23.0881   72.7810   -1.9431 O.3     1  UNL1       -0.2703
     25 P          23.0826   74.3179   -1.4626 P.3     1  UNL1        0.2208
     26 O          24.5901   74.8845   -1.4609 O.3     1  UNL1       -0.4371
     27 O          22.2553   75.1216   -2.3889 O.2     1  UNL1       -0.5170
     28 O          22.4713   74.4132    0.0240 O.3     1  UNL1       -0.2865
     29 C          21.2636   73.7562    0.4126 C.3     1  UNL1        0.2611
     30 C          20.7954   74.3039    1.7630 C.3     1  UNL1        0.1582
     31 C          21.8554   73.9949    2.8248 C.3     1  UNL1        0.1625
     32 C          22.0979   72.4836    2.8639 C.3     1  UNL1        0.1686
     33 C          22.5160   72.0060    1.4707 C.3     1  UNL1        0.1760
     34 O          21.3936   74.4378    4.1030 O.3     1  UNL1       -0.3801
     35 O          20.8969   71.8172    3.2574 O.3     1  UNL1       -0.3794
     36 O          21.5011   72.3515    0.5260 O.3     1  UNL1       -0.3263
     37 H          22.0168   74.2742    4.8242 H       1  UNL1        0.2105
     38 H          20.9775   70.8541    3.3028 H       1  UNL1        0.2105
     39 C          19.5386   76.3361    2.2408 C.2     1  UNL1        0.2231
     40 C          19.3461   77.8266    2.1406 C.3     1  UNL1        0.0946
     41 N          20.6087   75.7537    1.6648 N.am    1  UNL1       -0.2994
     42 O          18.7299   75.6588    2.8404 O.2     1  UNL1       -0.2751
     43 H          21.2550   76.2947    1.1845 H       1  UNL1        0.1496
     44 C          22.7024   70.4876    1.4870 C.3     1  UNL1        0.1693
     45 O          21.6142   69.8659    0.8003 O.3     1  UNL1       -0.3794
     46 H          21.6665   68.9008    0.7714 H       1  UNL1        0.2105
@<TRIPOS>BOND
     1    29    30    1
     2    30    41    1
     3    30    31    1
     4    31    34    1
     5    31    32    1
     6    32    35    1
     7    32    33    1
     8    33    36    1
     9    33    44    1
    10    39    40    1
    11    39    42    2
    12    39    41   am
    13    41    43    1
    14    29    28    1
    15    34    37    1
    16    35    38    1
    17    29    36    1
    18    44    45    1
    19    45    46    1
    20    15     6    1
    21    15    16   ar
    22    16    21    2
    23    16    17   ar
    24    17    23    1
    25    17    18   ar
    26    18    19   ar
    27    19    20   ar
    28    15    20   ar
    29    18    22    2
    30     6     7    1
    31     6    11    1
    32     7     9    1
    33     7     8    1
    34     8    13    1
    35     9    10    1
    36     9    12    1
    37    10     5    1
    38    10    11    1
    39    12    14    1
    40     5     4    1
    41     4     1    1
    42     1     2    1
    43     1    24    1
    44     1     3    2
    45    24    25    1
    46    28    25    1
    47    25    26    1
    48    25    27    2
@<TRIPOS>MOLECULE
UD2
 46 48 0 0 0
SMALL
GASTEIGER

@<TRIPOS>ATOM
      1 P          21.8614   74.9249   -5.4956 P.3     1  UNL1        0.2189
      2 O          23.0987   75.9302   -5.2731 O.3     1  UNL1       -0.4371
      3 O          20.6594   75.4643   -4.8224 O.2     1  UNL1       -0.5170
      4 O          21.5707   74.7728   -7.0724 O.3     1  UNL1       -0.3112
      5 C          21.8572   73.5794   -7.8039 C.3     1  UNL1        0.1811
      6 C          19.0162   71.5576   -6.9217 C.3     1  UNL1        0.2383
      7 C          18.5205   73.0174   -6.7618 C.3     1  UNL1        0.1895
      8 O          17.1222   73.1145   -7.0397 O.3     1  UNL1       -0.3779
      9 C          19.3502   73.7622   -7.8361 C.3     1  UNL1        0.1713
     10 C          20.5523   72.8337   -8.0941 C.3     1  UNL1        0.1764
     11 O          20.4235   71.7107   -7.2077 O.3     1  UNL1       -0.3308
     12 O          18.5836   73.9320   -9.0295 O.3     1  UNL1       -0.3794
     13 H          16.7648   74.0085   -6.9525 H       1  UNL1        0.2106
     14 H          17.7825   74.4599   -8.9115 H       1  UNL1        0.2105
     15 N          18.8205   70.8074   -5.6792 N.ar    1  UNL1       -0.2551
     16 C          17.6723   70.1359   -5.4800 C.ar    1  UNL1        0.3323
     17 N          17.4653   69.4382   -4.3475 N.ar    1  UNL1       -0.2743
     18 C          18.4144   69.4010   -3.3902 C.ar    1  UNL1        0.2626
     19 C          19.6282   70.1024   -3.5871 C.ar    1  UNL1        0.0795
     20 C          19.8105   70.7902   -4.7339 C.ar    1  UNL1        0.0869
     21 O          16.8079   70.1605   -6.3347 O.2     1  UNL1       -0.2464
     22 O          18.2284   68.7695   -2.3649 O.2     1  UNL1       -0.2670
     23 H          16.6312   68.9607   -4.2195 H       1  UNL1        0.1734
     24 O          22.2226   73.4832   -4.8757 O.3     1  UNL1       -0.2703
     25 P          23.1755   72.9895   -3.6752 P.3     1  UNL1        0.2208
     26 O          23.2852   71.3830   -3.7038 O.3     1  UNL1       -0.4371
     27 O          24.5225   73.5783   -3.8401 O.2     1  UNL1       -0.5170
     28 O          22.5522   73.4603   -2.2672 O.3     1  UNL1       -0.2865
     29 C          21.3717   72.8830   -1.7065 C.3     1  UNL1        0.2611
     30 C          20.8386   73.7886   -0.5937 C.3     1  UNL1        0.1582
     31 C          21.8848   73.8829    0.5211 C.3     1  UNL1        0.1625
     32 C          22.2074   72.4733    1.0245 C.3     1  UNL1        0.1686
     33 C          22.6879   71.6182   -0.1511 C.3     1  UNL1        0.1760
     34 O          21.3658   74.6673    1.5976 O.3     1  UNL1       -0.3801
     35 O          21.0340   71.8889    1.5927 O.3     1  UNL1       -0.3794
     36 O          21.6815   71.5971   -1.1654 O.3     1  UNL1       -0.3263
     37 H          21.9773   74.7696    2.3397 H       1  UNL1        0.2105
     38 H          21.1651   70.9925    1.9322 H       1  UNL1        0.2105
     39 C          19.3111   75.5153   -1.3830 C.2     1  UNL1        0.2231
     40 C          19.0410   76.8892   -1.9381 C.3     1  UNL1        0.0946
     41 N          20.5767   75.1251   -1.1338 N.am    1  UNL1       -0.2994
     42 O          18.3890   74.7590   -1.1600 O.2     1  UNL1       -0.2751
     43 H          21.3143   75.7292   -1.3129 H       1  UNL1        0.1496
     44 C          22.9554   70.1916    0.3322 C.3     1  UNL1        0.1693
     45 O          21.7168   69.4891    0.4542 O.3     1  UNL1       -0.3794
     46 H          21.8103   68.5756    0.7572 H       1  UNL1        0.2105
@<TRIPOS>BOND
     1    29    30    1
     2    30    41    1
     3    30    31    1
     4    31    34    1
     5    31    32    1
     6    32    35    1
     7    32    33    1
     8    33    36    1
     9    33    44    1
    10    39    40    1
    11    39    42    2
    12    39    41   am
    13    41    43    1
    14    29    28    1
    15    34    37    1
    16    35    38    1
    17    29    36    1
    18    44    45    1
    19    45    46    1
    20    15     6    1
    21    15    16   ar
    22    16    21    2
    23    16    17   ar
    24    17    23    1
    25    17    18   ar
    26    18    19   ar
    27    19    20   ar
    28    15    20   ar
    29    18    22    2
    30     6     7    1
    31     6    11    1
    32     7     9    1
    33     7     8    1
    34     8    13    1
    35     9    10    1
    36     9    12    1
    37    10     5    1
    38    10    11    1
    39    12    14    1
    40     5     4    1
    41     4     1    1
    42     1     2    1
    43     1    24    1
    44     1     3    2
    45    24    25    1
    46    28    25    1
    47    25    26    1
    48    25    27    2
@<TRIPOS>MOLECULE
UD2
 46 48 0 0 0
SMALL
GASTEIGER

@<TRIPOS>ATOM
      1 P          21.9470   70.7987   -0.3941 P.3     1  UNL1        0.2189
      2 O          21.6793   69.5657    0.6055 O.3     1  UNL1       -0.4371
      3 O          23.1013   70.4866   -1.2654 O.2     1  UNL1       -0.5170
      4 O          20.6404   71.0464   -1.3025 O.3     1  UNL1       -0.3112
      5 C          20.7105   71.4586   -2.6687 C.3     1  UNL1        0.1811
      6 C          18.2212   71.1634   -5.2481 C.3     1  UNL1        0.2383
      7 C          18.1422   69.8225   -4.4750 C.3     1  UNL1        0.1895
      8 O          16.8142   69.2957   -4.5020 O.3     1  UNL1       -0.3779
      9 C          18.5376   70.2503   -3.0404 C.3     1  UNL1        0.1713
     10 C          19.2947   71.5774   -3.2385 C.3     1  UNL1        0.1764
     11 O          19.3560   71.8282   -4.6516 O.3     1  UNL1       -0.3308
     12 O          17.3711   70.4540   -2.2412 O.3     1  UNL1       -0.3794
     13 H          16.7139   68.4568   -4.0320 H       1  UNL1        0.2106
     14 H          16.8250   69.6638   -2.1326 H       1  UNL1        0.2105
     15 N          18.4541   70.9237   -6.6740 N.ar    1  UNL1       -0.2551
     16 C          17.4068   70.7771   -7.5049 C.ar    1  UNL1        0.3323
     17 N          17.5914   70.5556   -8.8199 N.ar    1  UNL1       -0.2743
     18 C          18.8387   70.4790   -9.3268 C.ar    1  UNL1        0.2626
     19 C          19.9503   70.6326   -8.4637 C.ar    1  UNL1        0.0795
     20 C          19.7358   70.8578   -7.1504 C.ar    1  UNL1        0.0869
     21 O          16.2765   70.8440   -7.0618 O.2     1  UNL1       -0.2464
     22 O          19.0071   70.2791  -10.5168 O.2     1  UNL1       -0.2670
     23 H          16.8252   70.4510   -9.4048 H       1  UNL1        0.1734
     24 O          22.2638   72.1252    0.4622 O.3     1  UNL1       -0.2703
     25 P          21.5733   72.8233    1.7385 P.3     1  UNL1        0.2208
     26 O          20.3904   73.7971    1.2424 O.3     1  UNL1       -0.4371
     27 O          21.0138   71.7821    2.6280 O.2     1  UNL1       -0.5170
     28 O          22.6739   73.6812    2.5417 O.3     1  UNL1       -0.2865
     29 C          22.9684   73.4704    3.9238 C.3     1  UNL1        0.2611
     30 C          22.0803   74.3768    4.7797 C.3     1  UNL1        0.1582
     31 C          22.3956   75.8402    4.4549 C.3     1  UNL1        0.1625
     32 C          23.8863   76.0952    4.6936 C.3     1  UNL1        0.1686
     33 C          24.7050   75.1224    3.8408 C.3     1  UNL1        0.1760
     34 O          21.6233   76.6941    5.3020 O.3     1  UNL1       -0.3801
     35 O          24.1903   75.8926    6.0749 O.3     1  UNL1       -0.3794
     36 O          24.3415   73.7803    4.1705 O.3     1  UNL1       -0.3263
     37 H          21.7724   77.6374    5.1501 H       1  UNL1        0.2105
     38 H          25.1204   76.0366    6.2988 H       1  UNL1        0.2105
     39 C          19.7758   74.0217    5.4876 C.2     1  UNL1        0.2231
     40 C          18.3277   73.7396    5.1847 C.3     1  UNL1        0.0946
     41 N          20.6719   74.1021    4.4842 N.am    1  UNL1       -0.2994
     42 O          20.1365   74.1768    6.6357 O.2     1  UNL1       -0.2751
     43 H          20.3841   73.9771    3.5663 H       1  UNL1        0.1496
     44 C          26.1949   75.3305    4.1185 C.3     1  UNL1        0.1693
     45 O          26.6370   74.3783    5.0882 O.3     1  UNL1       -0.3794
     46 H          27.5745   74.4518    5.3134 H       1  UNL1        0.2105
@<TRIPOS>BOND
     1    29    30    1
     2    30    41    1
     3    30    31    1
     4    31    34    1
     5    31    32    1
     6    32    35    1
     7    32    33    1
     8    33    36    1
     9    33    44    1
    10    39    40    1
    11    39    42    2
    12    39    41   am
    13    41    43    1
    14    29    28    1
    15    34    37    1
    16    35    38    1
    17    29    36    1
    18    44    45    1
    19    45    46    1
    20    15     6    1
    21    15    16   ar
    22    16    21    2
    23    16    17   ar
    24    17    23    1
    25    17    18   ar
    26    18    19   ar
    27    19    20   ar
    28    15    20   ar
    29    18    22    2
    30     6     7    1
    31     6    11    1
    32     7     9    1
    33     7     8    1
    34     8    13    1
    35     9    10    1
    36     9    12    1
    37    10     5    1
    38    10    11    1
    39    12    14    1
    40     5     4    1
    41     4     1    1
    42     1     2    1
    43     1    24    1
    44     1     3    2
    45    24    25    1
    46    28    25    1
    47    25    26    1
    48    25    27    2
@<TRIPOS>MOLECULE
UD2
 46 48 0 0 0
SMALL
GASTEIGER

@<TRIPOS>ATOM
      1 P          21.9293   70.3099   -0.2406 P.3     1  UNL1        0.2189
      2 O          22.4397   68.8956    0.3344 O.3     1  UNL1       -0.4371
      3 O          23.0741   71.0531   -0.8116 O.2     1  UNL1       -0.5170
      4 O          20.8278   70.0566   -1.3879 O.3     1  UNL1       -0.3112
      5 C          20.9576   70.5669   -2.7161 C.3     1  UNL1        0.1811
      6 C          18.4198   70.9564   -5.2349 C.3     1  UNL1        0.2383
      7 C          18.0955   69.5985   -4.5617 C.3     1  UNL1        0.1895
      8 O          16.6907   69.3387   -4.5882 O.3     1  UNL1       -0.3779
      9 C          18.5874   69.8288   -3.1117 C.3     1  UNL1        0.1713
     10 C          19.5829   70.9983   -3.2330 C.3     1  UNL1        0.1764
     11 O          19.6702   71.3432   -4.6247 O.3     1  UNL1       -0.3308
     12 O          17.4941   70.1877   -2.2651 O.3     1  UNL1       -0.3794
     13 H          16.4378   68.5000   -4.1791 H       1  UNL1        0.2106
     14 H          16.8077   69.5103   -2.1994 H       1  UNL1        0.2105
     15 N          18.5808   70.7897   -6.6810 N.ar    1  UNL1       -0.2551
     16 C          17.4937   70.7399   -7.4713 C.ar    1  UNL1        0.3323
     17 N          17.6120   70.5872   -8.8035 N.ar    1  UNL1       -0.2743
     18 C          18.8318   70.4829   -9.3691 C.ar    1  UNL1        0.2626
     19 C          19.9848   70.5348   -8.5493 C.ar    1  UNL1        0.0795
     20 C          19.8367   70.6928   -7.2172 C.ar    1  UNL1        0.0869
     21 O          16.3875   70.8327   -6.9750 O.2     1  UNL1       -0.2464
     22 O          18.9402   70.3451  -10.5748 O.2     1  UNL1       -0.2670
     23 H          16.8177   70.5520   -9.3586 H       1  UNL1        0.1734
     24 O          21.2726   71.1692    0.9526 O.3     1  UNL1       -0.2703
     25 P          21.8749   72.0340    2.1700 P.3     1  UNL1        0.2208
     26 O          20.6864   72.4416    3.1776 O.3     1  UNL1       -0.4371
     27 O          22.8820   71.2296    2.8960 O.2     1  UNL1       -0.5170
     28 O          22.5682   73.3665    1.5902 O.3     1  UNL1       -0.2865
     29 C          21.8321   74.4145    0.9568 C.3     1  UNL1        0.2611
     30 C          22.7166   75.1026   -0.0858 C.3     1  UNL1        0.1582
     31 C          23.9195   75.7386    0.6177 C.3     1  UNL1        0.1625
     32 C          23.4161   76.7132    1.6859 C.3     1  UNL1        0.1686
     33 C          22.5044   75.9627    2.6604 C.3     1  UNL1        0.1760
     34 O          24.7123   76.4460   -0.3386 O.3     1  UNL1       -0.3801
     35 O          22.6830   77.7689    1.0619 O.3     1  UNL1       -0.3794
     36 O          21.4234   75.3695    1.9382 O.3     1  UNL1       -0.3263
     37 H          25.4933   76.8741    0.0383 H       1  UNL1        0.2105
     38 H          22.3327   78.4247    1.6809 H       1  UNL1        0.2105
     39 C          22.9740   74.3102   -2.3756 C.2     1  UNL1        0.2231
     40 C          23.4559   73.2937   -3.3772 C.3     1  UNL1        0.0946
     41 N          23.1855   74.1133   -1.0594 N.am    1  UNL1       -0.2994
     42 O          22.3949   75.3072   -2.7536 O.2     1  UNL1       -0.2751
     43 H          23.6475   73.3158   -0.7566 H       1  UNL1        0.1496
     44 C          21.9495   76.9422    3.6964 C.3     1  UNL1        0.1693
     45 O          22.9253   77.9493    3.9714 O.3     1  UNL1       -0.3794
     46 H          22.6409   78.6062    4.6215 H       1  UNL1        0.2105
@<TRIPOS>BOND
     1    29    30    1
     2    30    41    1
     3    30    31    1
     4    31    34    1
     5    31    32    1
     6    32    35    1
     7    32    33    1
     8    33    36    1
     9    33    44    1
    10    39    40    1
    11    39    42    2
    12    39    41   am
    13    41    43    1
    14    29    28    1
    15    34    37    1
    16    35    38    1
    17    29    36    1
    18    44    45    1
    19    45    46    1
    20    15     6    1
    21    15    16   ar
    22    16    21    2
    23    16    17   ar
    24    17    23    1
    25    17    18   ar
    26    18    19   ar
    27    19    20   ar
    28    15    20   ar
    29    18    22    2
    30     6     7    1
    31     6    11    1
    32     7     9    1
    33     7     8    1
    34     8    13    1
    35     9    10    1
    36     9    12    1
    37    10     5    1
    38    10    11    1
    39    12    14    1
    40     5     4    1
    41     4     1    1
    42     1     2    1
    43     1    24    1
    44     1     3    2
    45    24    25    1
    46    28    25    1
    47    25    26    1
    48    25    27    2
@<TRIPOS>MOLECULE
UD2
 46 48 0 0 0
SMALL
GASTEIGER

@<TRIPOS>ATOM
      1 P          22.0054   70.6723   -0.4047 P.3     1  UNL1        0.2189
      2 O          21.6203   69.3798    0.4742 O.3     1  UNL1       -0.4371
      3 O          23.1082   70.3300   -1.3296 O.2     1  UNL1       -0.5170
      4 O          20.7210   71.1463   -1.2529 O.3     1  UNL1       -0.3112
      5 C          20.7739   71.4239   -2.6535 C.3     1  UNL1        0.1811
      6 C          18.2492   71.1397   -5.1993 C.3     1  UNL1        0.2383
      7 C          18.1803   69.7957   -4.4304 C.3     1  UNL1        0.1895
      8 O          16.8519   69.2694   -4.4412 O.3     1  UNL1       -0.3779
      9 C          18.5957   70.2178   -2.9998 C.3     1  UNL1        0.1713
     10 C          19.3505   71.5454   -3.2031 C.3     1  UNL1        0.1764
     11 O          19.3924   71.8017   -4.6159 O.3     1  UNL1       -0.3308
     12 O          17.4405   70.4187   -2.1837 O.3     1  UNL1       -0.3794
     13 H          16.7579   68.4287   -3.9731 H       1  UNL1        0.2106
     14 H          16.8956   69.6283   -2.0707 H       1  UNL1        0.2105
     15 N          18.4623   70.9055   -6.6293 N.ar    1  UNL1       -0.2551
     16 C          17.4037   70.7461   -7.4435 C.ar    1  UNL1        0.3323
     17 N          17.5700   70.5294   -8.7616 N.ar    1  UNL1       -0.2743
     18 C          18.8099   70.4705   -9.2887 C.ar    1  UNL1        0.2626
     19 C          19.9332   70.6376   -8.4434 C.ar    1  UNL1        0.0795
     20 C          19.7369   70.8577   -7.1264 C.ar    1  UNL1        0.0869
     21 O          16.2800   70.7970   -6.9820 O.2     1  UNL1       -0.2464
     22 O          18.9618   70.2748  -10.4816 O.2     1  UNL1       -0.2670
     23 H          16.7960   70.4154   -9.3343 H       1  UNL1        0.1734
     24 O          22.4734   71.8651    0.5709 O.3     1  UNL1       -0.2703
     25 P          21.7371   72.7292    1.7128 P.3     1  UNL1        0.2208
     26 O          20.7487   73.7975    1.0231 O.3     1  UNL1       -0.4371
     27 O          20.9553   71.8276    2.5871 O.2     1  UNL1       -0.5170
     28 O          22.8395   73.5069    2.5917 O.3     1  UNL1       -0.2865
     29 C          22.6755   74.8573    3.0287 C.3     1  UNL1        0.2611
     30 C          24.0262   75.4148    3.4843 C.3     1  UNL1        0.1582
     31 C          24.5297   74.5975    4.6780 C.3     1  UNL1        0.1625
     32 C          23.4791   74.6394    5.7911 C.3     1  UNL1        0.1686
     33 C          22.1492   74.1116    5.2464 C.3     1  UNL1        0.1760
     34 O          25.7550   75.1569    5.1565 O.3     1  UNL1       -0.3801
     35 O          23.3117   75.9856    6.2395 O.3     1  UNL1       -0.3794
     36 O          21.7530   74.8958    4.1195 O.3     1  UNL1       -0.3263
     37 H          26.1321   74.6875    5.9133 H       1  UNL1        0.2105
     38 H          22.6584   76.0872    6.9458 H       1  UNL1        0.2105
     39 C          25.8573   76.3279    2.1611 C.2     1  UNL1        0.2231
     40 C          26.8489   76.2320    1.0314 C.3     1  UNL1        0.0946
     41 N          24.9902   75.3209    2.3850 N.am    1  UNL1       -0.2994
     42 O          25.8388   77.3122    2.8702 O.2     1  UNL1       -0.2751
     43 H          25.0041   74.5341    1.8177 H       1  UNL1        0.1496
     44 C          21.0789   74.2059    6.3355 C.3     1  UNL1        0.1693
     45 O          19.9069   73.5048    5.9145 O.3     1  UNL1       -0.3794
     46 H          19.1849   73.5228    6.5575 H       1  UNL1        0.2105
@<TRIPOS>BOND
     1    29    30    1
     2    30    41    1
     3    30    31    1
     4    31    34    1
     5    31    32    1
     6    32    35    1
     7    32    33    1
     8    33    36    1
     9    33    44    1
    10    39    40    1
    11    39    42    2
    12    39    41   am
    13    41    43    1
    14    29    28    1
    15    34    37    1
    16    35    38    1
    17    29    36    1
    18    44    45    1
    19    45    46    1
    20    15     6    1
    21    15    16   ar
    22    16    21    2
    23    16    17   ar
    24    17    23    1
    25    17    18   ar
    26    18    19   ar
    27    19    20   ar
    28    15    20   ar
    29    18    22    2
    30     6     7    1
    31     6    11    1
    32     7     9    1
    33     7     8    1
    34     8    13    1
    35     9    10    1
    36     9    12    1
    37    10     5    1
    38    10    11    1
    39    12    14    1
    40     5     4    1
    41     4     1    1
    42     1     2    1
    43     1    24    1
    44     1     3    2
    45    24    25    1
    46    28    25    1
    47    25    26    1
    48    25    27    2
@<TRIPOS>MOLECULE
UD2
 46 48 0 0 0
SMALL
GASTEIGER

@<TRIPOS>ATOM
      1 P          21.9335   70.4588   -0.1611 P.3     1  UNL1        0.2189
      2 O          22.3158   68.9978    0.3963 O.3     1  UNL1       -0.4371
      3 O          23.1213   71.0720   -0.7952 O.2     1  UNL1       -0.5170
      4 O          20.7530   70.3261   -1.2485 O.3     1  UNL1       -0.3112
      5 C          20.8784   70.7938   -2.5927 C.3     1  UNL1        0.1811
      6 C          18.3567   71.0484   -5.1448 C.3     1  UNL1        0.2383
      7 C          18.0686   69.6955   -4.4458 C.3     1  UNL1        0.1895
      8 O          16.6731   69.3902   -4.4810 O.3     1  UNL1       -0.3779
      9 C          18.5372   69.9719   -2.9962 C.3     1  UNL1        0.1713
     10 C          19.4963   71.1699   -3.1326 C.3     1  UNL1        0.1764
     11 O          19.5876   71.4879   -4.5304 O.3     1  UNL1       -0.3308
     12 O          17.4240   70.3135   -2.1686 O.3     1  UNL1       -0.3794
     13 H          16.4426   68.5527   -4.0566 H       1  UNL1        0.2106
     14 H          16.7588   69.6160   -2.0953 H       1  UNL1        0.2105
     15 N          18.5385   70.8564   -6.5853 N.ar    1  UNL1       -0.2551
     16 C          17.4625   70.7818   -7.3887 C.ar    1  UNL1        0.3323
     17 N          17.6000   70.6055   -8.7162 N.ar    1  UNL1       -0.2743
     18 C          18.8281   70.5022   -9.2636 C.ar    1  UNL1        0.2626
     19 C          19.9695   70.5801   -8.4298 C.ar    1  UNL1        0.0795
     20 C          19.8023   70.7614   -7.1029 C.ar    1  UNL1        0.0869
     21 O          16.3491   70.8735   -6.9089 O.2     1  UNL1       -0.2464
     22 O          18.9538   70.3431  -10.4650 O.2     1  UNL1       -0.2670
     23 H          16.8135   70.5526   -9.2809 H       1  UNL1        0.1734
     24 O          21.4371   71.3858    1.0585 O.3     1  UNL1       -0.2703
     25 P          21.3562   72.9770    1.2921 P.3     1  UNL1        0.2208
     26 O          22.8200   73.6217    1.1041 O.3     1  UNL1       -0.4371
     27 O          20.4252   73.5735    0.3093 O.2     1  UNL1       -0.5170
     28 O          20.8260   73.2741    2.7832 O.3     1  UNL1       -0.2865
     29 C          20.7455   74.5904    3.3329 C.3     1  UNL1        0.2611
     30 C          21.6267   74.6778    4.5814 C.3     1  UNL1        0.1582
     31 C          21.1005   73.7000    5.6366 C.3     1  UNL1        0.1625
     32 C          19.6353   74.0288    5.9361 C.3     1  UNL1        0.1686
     33 C          18.8307   73.9663    4.6351 C.3     1  UNL1        0.1760
     34 O          21.8727   73.8277    6.8327 O.3     1  UNL1       -0.3801
     35 O          19.5444   75.3418    6.4920 O.3     1  UNL1       -0.3794
     36 O          19.3907   74.8765    3.6864 O.3     1  UNL1       -0.3263
     37 H          21.5944   73.2359    7.5451 H       1  UNL1        0.2105
     38 H          18.6421   75.6174    6.7060 H       1  UNL1        0.2105
     39 C          24.0338   74.9875    4.7999 C.2     1  UNL1        0.2231
     40 C          25.4516   74.6267    4.4421 C.3     1  UNL1        0.0946
     41 N          23.0056   74.3263    4.2326 N.am    1  UNL1       -0.2994
     42 O          23.8166   75.8740    5.5994 O.2     1  UNL1       -0.2751
     43 H          23.1788   73.6182    3.5926 H       1  UNL1        0.1496
     44 C          17.3771   74.3519    4.9157 C.3     1  UNL1        0.1693
     45 O          16.9955   73.8679    6.2051 O.3     1  UNL1       -0.3794
     46 H          16.0837   74.0764    6.4501 H       1  UNL1        0.2105
@<TRIPOS>BOND
     1    29    30    1
     2    30    41    1
     3    30    31    1
     4    31    34    1
     5    31    32    1
     6    32    35    1
     7    32    33    1
     8    33    36    1
     9    33    44    1
    10    39    40    1
    11    39    42    2
    12    39    41   am
    13    41    43    1
    14    29    28    1
    15    34    37    1
    16    35    38    1
    17    29    36    1
    18    44    45    1
    19    45    46    1
    20    15     6    1
    21    15    16   ar
    22    16    21    2
    23    16    17   ar
    24    17    23    1
    25    17    18   ar
    26    18    19   ar
    27    19    20   ar
    28    15    20   ar
    29    18    22    2
    30     6     7    1
    31     6    11    1
    32     7     9    1
    33     7     8    1
    34     8    13    1
    35     9    10    1
    36     9    12    1
    37    10     5    1
    38    10    11    1
    39    12    14    1
    40     5     4    1
    41     4     1    1
    42     1     2    1
    43     1    24    1
    44     1     3    2
    45    24    25    1
    46    28    25    1
    47    25    26    1
    48    25    27    2
@<TRIPOS>MOLECULE
UD2
 46 48 0 0 0
SMALL
GASTEIGER

@<TRIPOS>ATOM
      1 P          21.5903   70.4805   -0.6185 P.3     1  UNL1        0.2189
      2 O          21.7841   69.9161    0.8766 O.3     1  UNL1       -0.4371
      3 O          22.8165   70.2247   -1.4058 O.2     1  UNL1       -0.5170
      4 O          20.3413   69.7389   -1.3142 O.3     1  UNL1       -0.3112
      5 C          20.1862   69.6417   -2.7312 C.3     1  UNL1        0.1811
      6 C          18.5539   71.6095   -5.2610 C.3     1  UNL1        0.2383
      7 C          17.4568   70.6394   -4.7537 C.3     1  UNL1        0.1895
      8 O          16.1629   71.2380   -4.8488 O.3     1  UNL1       -0.3779
      9 C          17.8631   70.4342   -3.2738 C.3     1  UNL1        0.1713
     10 C          19.3533   70.8230   -3.2350 C.3     1  UNL1        0.1764
     11 O          19.7429   71.1590   -4.5762 O.3     1  UNL1       -0.3308
     12 O          17.0997   71.2915   -2.4234 O.3     1  UNL1       -0.3794
     13 H          15.4428   70.6695   -4.5438 H       1  UNL1        0.2106
     14 H          16.1471   71.1298   -2.4535 H       1  UNL1        0.2105
     15 N          18.7171   71.4905   -6.7116 N.ar    1  UNL1       -0.2551
     16 C          18.0866   72.3551   -7.5263 C.ar    1  UNL1        0.3323
     17 N          18.2185   72.2691   -8.8632 N.ar    1  UNL1       -0.2743
     18 C          18.9921   71.3085   -9.4086 C.ar    1  UNL1        0.2626
     19 C          19.6625   70.3924   -8.5627 C.ar    1  UNL1        0.0795
     20 C          19.5156   70.5046   -7.2258 C.ar    1  UNL1        0.0869
     21 O          17.3860   73.2264   -7.0485 O.2     1  UNL1       -0.2464
     22 O          19.1126   71.2298  -10.6184 O.2     1  UNL1       -0.2670
     23 H          17.7559   72.8998   -9.4363 H       1  UNL1        0.1734
     24 O          21.3091   72.0651   -0.5621 O.3     1  UNL1       -0.2703
     25 P          22.1305   73.3640   -1.0427 P.3     1  UNL1        0.2208
     26 O          21.4525   74.6868   -0.4229 O.3     1  UNL1       -0.4371
     27 O          23.5307   73.2631   -0.5761 O.2     1  UNL1       -0.5170
     28 O          22.1051   73.4504   -2.6504 O.3     1  UNL1       -0.2865
     29 C          23.2874   73.5823   -3.4417 C.3     1  UNL1        0.2611
     30 C          23.6310   75.0649   -3.6043 C.3     1  UNL1        0.1582
     31 C          22.4913   75.7654   -4.3506 C.3     1  UNL1        0.1625
     32 C          22.2730   75.0691   -5.6966 C.3     1  UNL1        0.1686
     33 C          21.9816   73.5859   -5.4533 C.3     1  UNL1        0.1760
     34 O          22.8364   77.1348   -4.5716 O.3     1  UNL1       -0.3801
     35 O          23.4483   75.2002   -6.4984 O.3     1  UNL1       -0.3794
     36 O          23.0659   73.0018   -4.7286 O.3     1  UNL1       -0.3263
     37 H          22.1579   77.6403   -5.0400 H       1  UNL1        0.2105
     38 H          23.3812   74.7806   -7.3675 H       1  UNL1        0.2105
     39 C          25.0115   76.1201   -1.8960 C.2     1  UNL1        0.2231
     40 C          25.1857   76.7485   -0.5383 C.3     1  UNL1        0.0946
     41 N          23.7997   75.6758   -2.2834 N.am    1  UNL1       -0.2994
     42 O          25.9626   76.0136   -2.6418 O.2     1  UNL1       -0.2751
     43 H          23.0392   75.7599   -1.6870 H       1  UNL1        0.1496
     44 C          21.8213   72.8709   -6.7962 C.3     1  UNL1        0.1693
     45 O          23.0781   72.8449   -7.4759 O.3     1  UNL1       -0.3794
     46 H          23.0512   72.4056   -8.3369 H       1  UNL1        0.2105
@<TRIPOS>BOND
     1    29    30    1
     2    30    41    1
     3    30    31    1
     4    31    34    1
     5    31    32    1
     6    32    35    1
     7    32    33    1
     8    33    36    1
     9    33    44    1
    10    39    40    1
    11    39    42    2
    12    39    41   am
    13    41    43    1
    14    29    28    1
    15    34    37    1
    16    35    38    1
    17    29    36    1
    18    44    45    1
    19    45    46    1
    20    15     6    1
    21    15    16   ar
    22    16    21    2
    23    16    17   ar
    24    17    23    1
    25    17    18   ar
    26    18    19   ar
    27    19    20   ar
    28    15    20   ar
    29    18    22    2
    30     6     7    1
    31     6    11    1
    32     7     9    1
    33     7     8    1
    34     8    13    1
    35     9    10    1
    36     9    12    1
    37    10     5    1
    38    10    11    1
    39    12    14    1
    40     5     4    1
    41     4     1    1
    42     1     2    1
    43     1    24    1
    44     1     3    2
    45    24    25    1
    46    28    25    1
    47    25    26    1
    48    25    27    2
@<TRIPOS>MOLECULE
UD2
 46 48 0 0 0
SMALL
GASTEIGER

@<TRIPOS>ATOM
      1 P          21.8515   70.6247   -0.3630 P.3     1  UNL1        0.2189
      2 O          22.0762   69.7982    1.0000 O.3     1  UNL1       -0.4371
      3 O          23.1596   70.8884   -1.0020 O.2     1  UNL1       -0.5170
      4 O          20.9281   69.7662   -1.3649 O.3     1  UNL1       -0.3112
      5 C          20.9676   69.9225   -2.7846 C.3     1  UNL1        0.1811
      6 C          18.5004   70.8154   -5.2447 C.3     1  UNL1        0.2383
      7 C          17.9754   69.4940   -4.6279 C.3     1  UNL1        0.1895
      8 O          16.5471   69.4554   -4.6447 O.3     1  UNL1       -0.3779
      9 C          18.5086   69.5780   -3.1767 C.3     1  UNL1        0.1713
     10 C          19.6721   70.5843   -3.2608 C.3     1  UNL1        0.1764
     11 O          19.8005   70.9759   -4.6368 O.3     1  UNL1       -0.3308
     12 O          17.4909   70.0616   -2.2985 O.3     1  UNL1       -0.3794
     13 H          16.1707   68.6477   -4.2698 H       1  UNL1        0.2106
     14 H          16.7085   69.4958   -2.2527 H       1  UNL1        0.2105
     15 N          18.6220   70.6932   -6.6991 N.ar    1  UNL1       -0.2551
     16 C          17.5180   70.7357   -7.4661 C.ar    1  UNL1        0.3323
     17 N          17.6001   70.6257   -8.8052 N.ar    1  UNL1       -0.2743
     18 C          18.8000   70.4720   -9.4013 C.ar    1  UNL1        0.2626
     19 C          19.9704   70.4266   -8.6063 C.ar    1  UNL1        0.0795
     20 C          19.8589   70.5436   -7.2663 C.ar    1  UNL1        0.0869
     21 O          16.4296   70.8741   -6.9422 O.2     1  UNL1       -0.2464
     22 O          18.8757   70.3727  -10.6133 O.2     1  UNL1       -0.2670
     23 H          16.7941   70.6572   -9.3433 H       1  UNL1        0.1734
     24 O          21.1250   72.0227   -0.0298 O.3     1  UNL1       -0.2703
     25 P          21.0216   73.4380   -0.7908 P.3     1  UNL1        0.2208
     26 O          21.3979   73.2402   -2.3442 O.3     1  UNL1       -0.4371
     27 O          19.6410   73.9579   -0.6806 O.2     1  UNL1       -0.5170
     28 O          22.0447   74.4844   -0.1193 O.3     1  UNL1       -0.2865
     29 C          23.3783   74.1365    0.2573 C.3     1  UNL1        0.2611
     30 C          23.9406   75.2077    1.1950 C.3     1  UNL1        0.1582
     31 C          24.0014   76.5449    0.4503 C.3     1  UNL1        0.1625
     32 C          24.8502   76.3755   -0.8126 C.3     1  UNL1        0.1686
     33 C          24.2527   75.2591   -1.6732 C.3     1  UNL1        0.1760
     34 O          24.5936   77.5347    1.2946 O.3     1  UNL1       -0.3801
     35 O          26.1881   76.0330   -0.4466 O.3     1  UNL1       -0.3794
     36 O          24.1961   74.0513   -0.9116 O.3     1  UNL1       -0.3263
     37 H          24.6632   78.4087    0.8864 H       1  UNL1        0.2105
     38 H          26.7831   75.9092   -1.1993 H       1  UNL1        0.2105
     39 C          22.0723   76.2443    2.3666 C.2     1  UNL1        0.2231
     40 C          21.1768   76.3793    3.5701 C.3     1  UNL1        0.0946
     41 N          23.0701   75.3385    2.3662 N.am    1  UNL1       -0.2994
     42 O          21.8956   76.9513    1.3965 O.2     1  UNL1       -0.2751
     43 H          23.2123   74.7737    3.1419 H       1  UNL1        0.1496
     44 C          25.1291   75.0430   -2.9083 C.3     1  UNL1        0.1693
     45 O          24.6588   73.9052   -3.6339 O.3     1  UNL1       -0.3794
     46 H          25.1688   73.7082   -4.4314 H       1  UNL1        0.2105
@<TRIPOS>BOND
     1    29    30    1
     2    30    41    1
     3    30    31    1
     4    31    34    1
     5    31    32    1
     6    32    35    1
     7    32    33    1
     8    33    36    1
     9    33    44    1
    10    39    40    1
    11    39    42    2
    12    39    41   am
    13    41    43    1
    14    29    28    1
    15    34    37    1
    16    35    38    1
    17    29    36    1
    18    44    45    1
    19    45    46    1
    20    15     6    1
    21    15    16   ar
    22    16    21    2
    23    16    17   ar
    24    17    23    1
    25    17    18   ar
    26    18    19   ar
    27    19    20   ar
    28    15    20   ar
    29    18    22    2
    30     6     7    1
    31     6    11    1
    32     7     9    1
    33     7     8    1
    34     8    13    1
    35     9    10    1
    36     9    12    1
    37    10     5    1
    38    10    11    1
    39    12    14    1
    40     5     4    1
    41     4     1    1
    42     1     2    1
    43     1    24    1
    44     1     3    2
    45    24    25    1
    46    28    25    1
    47    25    26    1
    48    25    27    2
@<TRIPOS>MOLECULE
UD2
 46 48 0 0 0
SMALL
GASTEIGER

@<TRIPOS>ATOM
      1 P          21.1125   75.2428   -3.9408 P.3     1  UNL1        0.2189
      2 O          19.5282   75.0054   -3.7829 O.3     1  UNL1       -0.4371
      3 O          21.3837   76.6907   -4.0782 O.2     1  UNL1       -0.5170
      4 O          21.8724   74.6755   -2.6391 O.3     1  UNL1       -0.3112
      5 C          21.2308   73.8561   -1.6602 C.3     1  UNL1        0.1811
      6 C          22.8281   72.4106    1.2201 C.3     1  UNL1        0.2383
      7 C          21.7861   71.3512    0.7797 C.3     1  UNL1        0.1895
      8 O          22.2360   70.0319    1.0940 O.3     1  UNL1       -0.3779
      9 C          21.7318   71.5659   -0.7528 C.3     1  UNL1        0.1713
     10 C          22.2780   72.9925   -0.9528 C.3     1  UNL1        0.1764
     11 O          22.5563   73.5306    0.3497 O.3     1  UNL1       -0.3308
     12 O          22.5623   70.6138   -1.4196 O.3     1  UNL1       -0.3794
     13 H          21.6179   69.3339    0.8382 H       1  UNL1        0.2106
     14 H          22.2989   69.6944   -1.2792 H       1  UNL1        0.2105
     15 N          22.6233   72.7842    2.6214 N.ar    1  UNL1       -0.2551
     16 C          21.4554   72.4974    3.2236 C.ar    1  UNL1        0.3323
     17 N          21.2396   72.8291    4.5103 N.ar    1  UNL1       -0.2743
     18 C          22.1996   73.4569    5.2195 C.ar    1  UNL1        0.2626
     19 C          23.4341   73.7639    4.5985 C.ar    1  UNL1        0.0795
     20 C          23.6247   73.4158    3.3085 C.ar    1  UNL1        0.0869
     21 O          20.5809   71.9315    2.5963 O.2     1  UNL1       -0.2464
     22 O          22.0057   73.7573    6.3843 O.2     1  UNL1       -0.2670
     23 H          20.3913   72.6161    4.9288 H       1  UNL1        0.1734
     24 O          21.6433   74.4704   -5.2504 O.3     1  UNL1       -0.2703
     25 P          21.8238   72.9174   -5.6359 P.3     1  UNL1        0.2208
     26 O          22.7430   72.7952   -6.9527 O.3     1  UNL1       -0.4371
     27 O          22.4719   72.2026   -4.5146 O.2     1  UNL1       -0.5170
     28 O          20.3805   72.2653   -5.9260 O.3     1  UNL1       -0.2865
     29 C          19.3206   72.9753   -6.5693 C.3     1  UNL1        0.2611
     30 C          17.9743   72.4643   -6.0505 C.3     1  UNL1        0.1582
     31 C          17.8272   70.9827   -6.4104 C.3     1  UNL1        0.1625
     32 C          17.9643   70.8207   -7.9268 C.3     1  UNL1        0.1686
     33 C          19.3114   71.3952   -8.3733 C.3     1  UNL1        0.1760
     34 O          16.5418   70.5159   -5.9945 O.3     1  UNL1       -0.3801
     35 O          16.9051   71.5227   -8.5798 O.3     1  UNL1       -0.3794
     36 O          19.3961   72.7666   -7.9810 O.3     1  UNL1       -0.3263
     37 H          16.3802   69.5828   -6.1908 H       1  UNL1        0.2105
     38 H          16.9297   71.4638   -9.5452 H       1  UNL1        0.2105
     39 C          18.3319   71.6221   -3.7921 C.2     1  UNL1        0.2231
     40 C          18.2755   71.7840   -2.2957 C.3     1  UNL1        0.0946
     41 N          17.9188   72.6225   -4.5950 N.am    1  UNL1       -0.2994
     42 O          18.7495   70.5905   -4.2754 O.2     1  UNL1       -0.2751
     43 H          17.5840   73.4470   -4.2090 H       1  UNL1        0.1496
     44 C          19.4306   71.2913   -9.8950 C.3     1  UNL1        0.1693
     45 O          18.6180   70.2137  -10.3648 O.3     1  UNL1       -0.3794
     46 H          18.6449   70.0888  -11.3233 H       1  UNL1        0.2105
@<TRIPOS>BOND
     1    29    30    1
     2    30    41    1
     3    30    31    1
     4    31    34    1
     5    31    32    1
     6    32    35    1
     7    32    33    1
     8    33    36    1
     9    33    44    1
    10    39    40    1
    11    39    42    2
    12    39    41   am
    13    41    43    1
    14    29    28    1
    15    34    37    1
    16    35    38    1
    17    29    36    1
    18    44    45    1
    19    45    46    1
    20    15     6    1
    21    15    16   ar
    22    16    21    2
    23    16    17   ar
    24    17    23    1
    25    17    18   ar
    26    18    19   ar
    27    19    20   ar
    28    15    20   ar
    29    18    22    2
    30     6     7    1
    31     6    11    1
    32     7     9    1
    33     7     8    1
    34     8    13    1
    35     9    10    1
    36     9    12    1
    37    10     5    1
    38    10    11    1
    39    12    14    1
    40     5     4    1
    41     4     1    1
    42     1     2    1
    43     1    24    1
    44     1     3    2
    45    24    25    1
    46    28    25    1
    47    25    26    1
    48    25    27    2
@<TRIPOS>MOLECULE
UD2
 46 48 0 0 0
SMALL
GASTEIGER

@<TRIPOS>ATOM
      1 P          22.5788   71.4285   -2.4289 P.3     1  UNL1        0.2189
      2 O          22.5158   70.9628   -0.8892 O.3     1  UNL1       -0.4371
      3 O          23.3916   70.4651   -3.2035 O.2     1  UNL1       -0.5170
      4 O          21.0875   71.4818   -3.0347 O.3     1  UNL1       -0.3112
      5 C          20.1460   72.5008   -2.6935 C.3     1  UNL1        0.1811
      6 C          17.9687   71.3017   -5.2930 C.3     1  UNL1        0.2383
      7 C          18.2411   70.0585   -4.4085 C.3     1  UNL1        0.1895
      8 O          17.1224   69.1695   -4.4197 O.3     1  UNL1       -0.3779
      9 C          18.4300   70.6909   -3.0079 C.3     1  UNL1        0.1713
     10 C          18.7838   72.1610   -3.3032 C.3     1  UNL1        0.1764
     11 O          18.8365   72.3099   -4.7309 O.3     1  UNL1       -0.3308
     12 O          17.2182   70.6089   -2.2559 O.3     1  UNL1       -0.3794
     13 H          17.2448   68.3760   -3.8811 H       1  UNL1        0.2106
     14 H          16.9168   69.7053   -2.0915 H       1  UNL1        0.2105
     15 N          18.3267   71.0312   -6.6872 N.ar    1  UNL1       -0.2551
     16 C          17.3759   70.6456   -7.5566 C.ar    1  UNL1        0.3323
     17 N          17.6764   70.3902   -8.8437 N.ar    1  UNL1       -0.2743
     18 C          18.9447   70.5201   -9.2832 C.ar    1  UNL1        0.2626
     19 C          19.9555   70.9263   -8.3791 C.ar    1  UNL1        0.0795
     20 C          19.6249   71.1798   -7.0953 C.ar    1  UNL1        0.0869
     21 O          16.2280   70.5244   -7.1744 O.2     1  UNL1       -0.2464
     22 O          19.2180   70.2897  -10.4480 O.2     1  UNL1       -0.2670
     23 H          16.9789   70.1119   -9.4571 H       1  UNL1        0.1734
     24 O          23.2471   72.8908   -2.5207 O.3     1  UNL1       -0.2703
     25 P          23.6188   73.8755   -3.7394 P.3     1  UNL1        0.2208
     26 O          23.2861   73.1480   -5.1371 O.3     1  UNL1       -0.4371
     27 O          22.8242   75.1185   -3.6296 O.2     1  UNL1       -0.5170
     28 O          25.1875   74.2338   -3.6804 O.3     1  UNL1       -0.2865
     29 C          25.6820   75.5737   -3.7206 C.3     1  UNL1        0.2611
     30 C          27.2040   75.5523   -3.8804 C.3     1  UNL1        0.1582
     31 C          27.8270   74.8630   -2.6625 C.3     1  UNL1        0.1625
     32 C          27.3869   75.5973   -1.3931 C.3     1  UNL1        0.1686
     33 C          25.8573   75.6169   -1.3292 C.3     1  UNL1        0.1760
     34 O          29.2519   74.9037   -2.7681 O.3     1  UNL1       -0.3801
     35 O          27.8815   76.9374   -1.4208 O.3     1  UNL1       -0.3794
     36 O          25.3410   76.2435   -2.5051 O.3     1  UNL1       -0.3263
     37 H          29.7128   74.4834   -2.0291 H       1  UNL1        0.2105
     38 H          27.6392   77.4629   -0.6454 H       1  UNL1        0.2105
     39 C          28.5422   75.2671   -5.8967 C.2     1  UNL1        0.2231
     40 C          28.9071   74.5085   -7.1457 C.3     1  UNL1        0.0946
     41 N          27.5582   74.8139   -5.0953 N.am    1  UNL1       -0.2994
     42 O          29.1344   76.2870   -5.6115 O.2     1  UNL1       -0.2751
     43 H          27.0838   73.9991   -5.3234 H       1  UNL1        0.1496
     44 C          25.4087   76.4008   -0.0944 C.3     1  UNL1        0.1693
     45 O          26.4497   76.3855    0.8846 O.3     1  UNL1       -0.3794
     46 H          26.2341   76.8646    1.6964 H       1  UNL1        0.2105
@<TRIPOS>BOND
     1    29    30    1
     2    30    41    1
     3    30    31    1
     4    31    34    1
     5    31    32    1
     6    32    35    1
     7    32    33    1
     8    33    36    1
     9    33    44    1
    10    39    40    1
    11    39    42    2
    12    39    41   am
    13    41    43    1
    14    29    28    1
    15    34    37    1
    16    35    38    1
    17    29    36    1
    18    44    45    1
    19    45    46    1
    20    15     6    1
    21    15    16   ar
    22    16    21    2
    23    16    17   ar
    24    17    23    1
    25    17    18   ar
    26    18    19   ar
    27    19    20   ar
    28    15    20   ar
    29    18    22    2
    30     6     7    1
    31     6    11    1
    32     7     9    1
    33     7     8    1
    34     8    13    1
    35     9    10    1
    36     9    12    1
    37    10     5    1
    38    10    11    1
    39    12    14    1
    40     5     4    1
    41     4     1    1
    42     1     2    1
    43     1    24    1
    44     1     3    2
    45    24    25    1
    46    28    25    1
    47    25    26    1
    48    25    27    2
@<TRIPOS>MOLECULE
UD2
 46 48 0 0 0
SMALL
GASTEIGER

@<TRIPOS>ATOM
      1 P          23.1357   73.9054   -3.5432 P.3     1  UNL1        0.2189
      2 O          23.4142   75.4011   -4.0694 O.3     1  UNL1       -0.4371
      3 O          24.2322   73.0149   -3.9831 O.2     1  UNL1       -0.5170
      4 O          23.0591   73.9083   -1.9345 O.3     1  UNL1       -0.3112
      5 C          22.1680   74.7500   -1.2004 C.3     1  UNL1        0.1811
      6 C          22.8660   74.2825    2.2969 C.3     1  UNL1        0.2383
      7 C          21.8206   75.4260    2.2576 C.3     1  UNL1        0.1895
      8 O          21.0016   75.4089    3.4283 O.3     1  UNL1       -0.3779
      9 C          20.9930   75.0671    0.9992 C.3     1  UNL1        0.1713
     10 C          21.9241   74.1480    0.1857 C.3     1  UNL1        0.1764
     11 O          23.1652   74.0535    0.9028 O.3     1  UNL1       -0.3308
     12 O          19.8006   74.3720    1.3678 O.3     1  UNL1       -0.3794
     13 H          20.3322   76.1060    3.4506 H       1  UNL1        0.2106
     14 H          19.2041   74.8837    1.9306 H       1  UNL1        0.2105
     15 N          24.0671   74.7062    3.0200 N.ar    1  UNL1       -0.2551
     16 C          24.2290   74.3533    4.3076 C.ar    1  UNL1        0.3323
     17 N          25.3228   74.7289    4.9966 N.ar    1  UNL1       -0.2743
     18 C          26.2798   75.4685    4.4002 C.ar    1  UNL1        0.2626
     19 C          26.1229   75.8461    3.0449 C.ar    1  UNL1        0.0795
     20 C          25.0182   75.4520    2.3772 C.ar    1  UNL1        0.0869
     21 O          23.3742   73.6864    4.8581 O.2     1  UNL1       -0.2464
     22 O          27.2705   75.8087    5.0226 O.2     1  UNL1       -0.2670
     23 H          25.4231   74.4669    5.9248 H       1  UNL1        0.1734
     24 O          21.7393   73.3757   -4.1453 O.3     1  UNL1       -0.2703
     25 P          21.1026   73.3364   -5.6238 P.3     1  UNL1        0.2208
     26 O          20.8586   74.8413   -6.1427 O.3     1  UNL1       -0.4371
     27 O          22.0313   72.6429   -6.5429 O.2     1  UNL1       -0.5170
     28 O          19.6991   72.5482   -5.5828 O.3     1  UNL1       -0.2865
     29 C          19.6011   71.1268   -5.6886 C.3     1  UNL1        0.2611
     30 C          18.3976   70.7607   -6.5605 C.3     1  UNL1        0.1582
     31 C          17.1178   71.2663   -5.8874 C.3     1  UNL1        0.1625
     32 C          17.0211   70.6652   -4.4825 C.3     1  UNL1        0.1686
     33 C          18.2780   71.0351   -3.6905 C.3     1  UNL1        0.1760
     34 O          15.9828   70.8647   -6.6579 O.3     1  UNL1       -0.3801
     35 O          16.9169   69.2434   -4.5774 O.3     1  UNL1       -0.3794
     36 O          19.4335   70.5630   -4.3862 O.3     1  UNL1       -0.3263
     37 H          15.1362   71.1524   -6.2896 H       1  UNL1        0.2105
     38 H          16.8525   68.7952   -3.7225 H       1  UNL1        0.2105
     39 C          19.4601   70.9283   -8.7470 C.2     1  UNL1        0.2231
     40 C          19.6056   71.5718  -10.1010 C.3     1  UNL1        0.0946
     41 N          18.5387   71.3874   -7.8773 N.am    1  UNL1       -0.2994
     42 O          20.1727   69.9960   -8.4386 O.2     1  UNL1       -0.2751
     43 H          17.9694   72.1334   -8.1231 H       1  UNL1        0.1496
     44 C          18.2165   70.3884   -2.3055 C.3     1  UNL1        0.1693
     45 O          18.5163   68.9954   -2.4156 O.3     1  UNL1       -0.3794
     46 H          18.4956   68.5203   -1.5737 H       1  UNL1        0.2105
@<TRIPOS>BOND
     1    29    30    1
     2    30    41    1
     3    30    31    1
     4    31    34    1
     5    31    32    1
     6    32    35    1
     7    32    33    1
     8    33    36    1
     9    33    44    1
    10    39    40    1
    11    39    42    2
    12    39    41   am
    13    41    43    1
    14    29    28    1
    15    34    37    1
    16    35    38    1
    17    29    36    1
    18    44    45    1
    19    45    46    1
    20    15     6    1
    21    15    16   ar
    22    16    21    2
    23    16    17   ar
    24    17    23    1
    25    17    18   ar
    26    18    19   ar
    27    19    20   ar
    28    15    20   ar
    29    18    22    2
    30     6     7    1
    31     6    11    1
    32     7     9    1
    33     7     8    1
    34     8    13    1
    35     9    10    1
    36     9    12    1
    37    10     5    1
    38    10    11    1
    39    12    14    1
    40     5     4    1
    41     4     1    1
    42     1     2    1
    43     1    24    1
    44     1     3    2
    45    24    25    1
    46    28    25    1
    47    25    26    1
    48    25    27    2
@<TRIPOS>MOLECULE
UD2
 46 48 0 0 0
SMALL
GASTEIGER

@<TRIPOS>ATOM
      1 P          22.2924   72.9577   -3.9459 P.3     1  UNL1        0.2189
      2 O          23.8919   72.7773   -3.9634 O.3     1  UNL1       -0.4371
      3 O          21.6454   71.6272   -3.9310 O.2     1  UNL1       -0.5170
      4 O          21.8595   73.7798   -2.6305 O.3     1  UNL1       -0.3112
      5 C          21.3830   73.1480   -1.4409 C.3     1  UNL1        0.1811
      6 C          23.1406   72.3839    1.6027 C.3     1  UNL1        0.2383
      7 C          22.4056   71.0695    1.2367 C.3     1  UNL1        0.1895
      8 O          23.1433   69.9307    1.6849 O.3     1  UNL1       -0.3779
      9 C          22.3749   71.1338   -0.3100 C.3     1  UNL1        0.1713
     10 C          22.5718   72.6282   -0.6287 C.3     1  UNL1        0.1764
     11 O          22.6501   73.3262    0.6244 O.3     1  UNL1       -0.3308
     12 O          23.4405   70.3594   -0.8628 O.3     1  UNL1       -0.3794
     13 H          22.7237   69.0843    1.4798 H       1  UNL1        0.2106
     14 H          23.3989   69.4189   -0.6437 H       1  UNL1        0.2105
     15 N          22.7853   72.8137    2.9570 N.ar    1  UNL1       -0.2551
     16 C          21.5744   72.5089    3.4567 C.ar    1  UNL1        0.3323
     17 N          21.2210   72.8912    4.6981 N.ar    1  UNL1       -0.2743
     18 C          22.0835   73.5891    5.4648 C.ar    1  UNL1        0.2626
     19 C          23.3618   73.9159    4.9518 C.ar    1  UNL1        0.0795
     20 C          23.6911   73.5161    3.7055 C.ar    1  UNL1        0.0869
     21 O          20.7867   71.8800    2.7767 O.2     1  UNL1       -0.2464
     22 O          21.7649   73.9353    6.5887 O.2     1  UNL1       -0.2670
     23 H          20.3435   72.6642    5.0425 H       1  UNL1        0.1734
     24 O          21.8287   73.7655   -5.2596 O.3     1  UNL1       -0.2703
     25 P          21.4229   73.3286   -6.7554 P.3     1  UNL1        0.2208
     26 O          21.1804   74.6449   -7.6512 O.3     1  UNL1       -0.4371
     27 O          22.5136   72.5237   -7.3476 O.2     1  UNL1       -0.5170
     28 O          20.0723   72.4530   -6.7109 O.3     1  UNL1       -0.2865
     29 C          18.8991   72.8669   -6.0083 C.3     1  UNL1        0.2611
     30 C          18.0251   71.6464   -5.7093 C.3     1  UNL1        0.1582
     31 C          17.5772   71.0140   -7.0306 C.3     1  UNL1        0.1625
     32 C          16.8398   72.0660   -7.8636 C.3     1  UNL1        0.1686
     33 C          17.7598   73.2706   -8.0796 C.3     1  UNL1        0.1760
     34 O          16.7006   69.9173   -6.7618 O.3     1  UNL1       -0.3801
     35 O          15.6610   72.4826   -7.1720 O.3     1  UNL1       -0.3794
     36 O          18.1644   73.7922   -6.8123 O.3     1  UNL1       -0.3263
     37 H          16.3781   69.4685   -7.5553 H       1  UNL1        0.2105
     38 H          15.1434   73.1508   -7.6427 H       1  UNL1        0.2105
     39 C          18.2018   69.9713   -3.9486 C.2     1  UNL1        0.2231
     40 C          18.9938   68.9671   -3.1530 C.3     1  UNL1        0.0946
     41 N          18.7962   70.6700   -4.9357 N.am    1  UNL1       -0.2994
     42 O          17.0278   70.1517   -3.7009 O.2     1  UNL1       -0.2751
     43 H          19.7351   70.5268   -5.1334 H       1  UNL1        0.1496
     44 C          17.0096   74.3514   -8.8604 C.3     1  UNL1        0.1693
     45 O          17.6882   75.6010   -8.7173 O.3     1  UNL1       -0.3794
     46 H          17.2673   76.3338   -9.1872 H       1  UNL1        0.2105
@<TRIPOS>BOND
     1    29    30    1
     2    30    41    1
     3    30    31    1
     4    31    34    1
     5    31    32    1
     6    32    35    1
     7    32    33    1
     8    33    36    1
     9    33    44    1
    10    39    40    1
    11    39    42    2
    12    39    41   am
    13    41    43    1
    14    29    28    1
    15    34    37    1
    16    35    38    1
    17    29    36    1
    18    44    45    1
    19    45    46    1
    20    15     6    1
    21    15    16   ar
    22    16    21    2
    23    16    17   ar
    24    17    23    1
    25    17    18   ar
    26    18    19   ar
    27    19    20   ar
    28    15    20   ar
    29    18    22    2
    30     6     7    1
    31     6    11    1
    32     7     9    1
    33     7     8    1
    34     8    13    1
    35     9    10    1
    36     9    12    1
    37    10     5    1
    38    10    11    1
    39    12    14    1
    40     5     4    1
    41     4     1    1
    42     1     2    1
    43     1    24    1
    44     1     3    2
    45    24    25    1
    46    28    25    1
    47    25    26    1
    48    25    27    2
@<TRIPOS>MOLECULE
UD2
 46 48 0 0 0
SMALL
GASTEIGER

@<TRIPOS>ATOM
      1 P          21.9822   71.2314   -2.9128 P.3     1  UNL1        0.2189
      2 O          21.1370   72.5976   -3.0157 O.3     1  UNL1       -0.4371
      3 O          23.2635   71.3876   -3.6356 O.2     1  UNL1       -0.5170
      4 O          22.2762   70.8979   -1.3649 O.3     1  UNL1       -0.3112
      5 C          21.3581   71.2081   -0.3150 C.3     1  UNL1        0.1811
      6 C          21.6921   74.0556    1.8569 C.3     1  UNL1        0.2383
      7 C          23.1344   73.7664    1.3688 C.3     1  UNL1        0.1895
      8 O          23.8999   74.9709    1.2977 O.3     1  UNL1       -0.3779
      9 C          22.8888   73.1837   -0.0445 C.3     1  UNL1        0.1713
     10 C          21.4248   72.7057   -0.0056 C.3     1  UNL1        0.1764
     11 O          20.9289   72.9535    1.3196 O.3     1  UNL1       -0.3308
     12 O          23.0586   74.1962   -1.0380 O.3     1  UNL1       -0.3794
     13 H          24.8098   74.8418    0.9978 H       1  UNL1        0.2106
     14 H          23.9476   74.5749   -1.0668 H       1  UNL1        0.2105
     15 N          21.6337   74.0591    3.3203 N.ar    1  UNL1       -0.2551
     16 C          21.8641   72.9211    3.9992 C.ar    1  UNL1        0.3323
     17 N          21.8168   72.8952    5.3443 N.ar    1  UNL1       -0.2743
     18 C          21.5375   74.0190    6.0354 C.ar    1  UNL1        0.2626
     19 C          21.2940   75.2242    5.3337 C.ar    1  UNL1        0.0795
     20 C          21.3521   75.2221    3.9853 C.ar    1  UNL1        0.0869
     21 O          22.1173   71.9003    3.3891 O.2     1  UNL1       -0.2464
     22 O          21.4949   73.9970    7.2529 O.2     1  UNL1       -0.2670
     23 H          21.9842   72.0659    5.8180 H       1  UNL1        0.1734
     24 O          21.1384   70.0273   -3.5695 O.3     1  UNL1       -0.2703
     25 P          19.5708   69.6641   -3.6308 P.3     1  UNL1        0.2208
     26 O          19.3898   68.0640   -3.6061 O.3     1  UNL1       -0.4371
     27 O          18.8811   70.2560   -2.4636 O.2     1  UNL1       -0.5170
     28 O          18.9356   70.2556   -4.9870 O.3     1  UNL1       -0.2865
     29 C          19.4118   71.4476   -5.6143 C.3     1  UNL1        0.2611
     30 C          18.2651   72.4541   -5.7367 C.3     1  UNL1        0.1582
     31 C          17.1715   71.8626   -6.6314 C.3     1  UNL1        0.1625
     32 C          17.7774   71.5049   -7.9913 C.3     1  UNL1        0.1686
     33 C          18.9431   70.5347   -7.7819 C.3     1  UNL1        0.1760
     34 O          16.1297   72.8248   -6.8109 O.3     1  UNL1       -0.3801
     35 O          18.2518   72.6916   -8.6299 O.3     1  UNL1       -0.3794
     36 O          19.9097   71.1338   -6.9166 O.3     1  UNL1       -0.3263
     37 H          15.4017   72.5163   -7.3679 H       1  UNL1        0.2105
     38 H          18.6502   72.5394   -9.4983 H       1  UNL1        0.2105
     39 C          16.6451   72.0412   -3.9639 C.2     1  UNL1        0.2231
     40 C          16.0779   72.3258   -2.5979 C.3     1  UNL1        0.0946
     41 N          17.7138   72.7316   -4.4079 N.am    1  UNL1       -0.2994
     42 O          16.1398   71.1899   -4.6654 O.2     1  UNL1       -0.2751
     43 H          18.1175   73.4130   -3.8478 H       1  UNL1        0.1496
     44 C          19.5920   70.2189   -9.1309 C.3     1  UNL1        0.1693
     45 O          18.6000   70.2604  -10.1588 O.3     1  UNL1       -0.3794
     46 H          18.9411   70.0692  -11.0432 H       1  UNL1        0.2105
@<TRIPOS>BOND
     1    29    30    1
     2    30    41    1
     3    30    31    1
     4    31    34    1
     5    31    32    1
     6    32    35    1
     7    32    33    1
     8    33    36    1
     9    33    44    1
    10    39    40    1
    11    39    42    2
    12    39    41   am
    13    41    43    1
    14    29    28    1
    15    34    37    1
    16    35    38    1
    17    29    36    1
    18    44    45    1
    19    45    46    1
    20    15     6    1
    21    15    16   ar
    22    16    21    2
    23    16    17   ar
    24    17    23    1
    25    17    18   ar
    26    18    19   ar
    27    19    20   ar
    28    15    20   ar
    29    18    22    2
    30     6     7    1
    31     6    11    1
    32     7     9    1
    33     7     8    1
    34     8    13    1
    35     9    10    1
    36     9    12    1
    37    10     5    1
    38    10    11    1
    39    12    14    1
    40     5     4    1
    41     4     1    1
    42     1     2    1
    43     1    24    1
    44     1     3    2
    45    24    25    1
    46    28    25    1
    47    25    26    1
    48    25    27    2
@<TRIPOS>MOLECULE
UD2
 46 48 0 0 0
SMALL
GASTEIGER

@<TRIPOS>ATOM
      1 P          22.7567   72.4125   -2.8101 P.3     1  UNL1        0.2189
      2 O          23.7161   73.6160   -2.3382 O.3     1  UNL1       -0.4371
      3 O          23.5379   71.4421   -3.6082 O.2     1  UNL1       -0.5170
      4 O          22.1458   71.6744   -1.5156 O.3     1  UNL1       -0.3112
      5 C          22.4473   72.0754   -0.1778 C.3     1  UNL1        0.1811
      6 C          20.5038   73.1679    2.6446 C.3     1  UNL1        0.2383
      7 C          20.5640   74.4036    1.7111 C.3     1  UNL1        0.1895
      8 O          19.3845   75.1996    1.8418 O.3     1  UNL1       -0.3779
      9 C          20.6363   73.7493    0.3096 C.3     1  UNL1        0.1713
     10 C          21.1441   72.3214    0.5865 C.3     1  UNL1        0.1764
     11 O          21.3792   72.2174    1.9998 O.3     1  UNL1       -0.3308
     12 O          19.3407   73.7123   -0.2911 O.3     1  UNL1       -0.3794
     13 H          19.3751   75.9848    1.2780 H       1  UNL1        0.2106
     14 H          18.9476   74.5837   -0.4341 H       1  UNL1        0.2105
     15 N          21.0021   73.5054    3.9798 N.ar    1  UNL1       -0.2551
     16 C          20.1352   73.8635    4.9438 C.ar    1  UNL1        0.3323
     17 N          20.5651   74.1791    6.1798 N.ar    1  UNL1       -0.2743
     18 C          21.8811   74.1385    6.4716 C.ar    1  UNL1        0.2626
     19 C          22.8046   73.7623    5.4668 C.ar    1  UNL1        0.0795
     20 C          22.3453   73.4469    4.2376 C.ar    1  UNL1        0.0869
     21 O          18.9458   73.9043    4.6949 O.2     1  UNL1       -0.2464
     22 O          22.2715   74.4235    7.5901 O.2     1  UNL1       -0.2670
     23 H          19.9267   74.4364    6.8627 H       1  UNL1        0.1734
     24 O          21.5564   73.0027   -3.7068 O.3     1  UNL1       -0.2703
     25 P          21.3720   73.2854   -5.2813 P.3     1  UNL1        0.2208
     26 O          21.0180   74.8400   -5.5090 O.3     1  UNL1       -0.4371
     27 O          22.6270   72.9567   -5.9921 O.2     1  UNL1       -0.5170
     28 O          20.1755   72.3727   -5.8539 O.3     1  UNL1       -0.2865
     29 C          18.9741   72.9181   -6.4020 C.3     1  UNL1        0.2611
     30 C          17.7743   72.0995   -5.9194 C.3     1  UNL1        0.1582
     31 C          17.9085   70.6622   -6.4316 C.3     1  UNL1        0.1625
     32 C          18.0198   70.6841   -7.9586 C.3     1  UNL1        0.1686
     33 C          19.2106   71.5574   -8.3627 C.3     1  UNL1        0.1760
     34 O          16.7558   69.9091   -6.0476 O.3     1  UNL1       -0.3801
     35 O          16.8203   71.2229   -8.5172 O.3     1  UNL1       -0.3794
     36 O          19.0382   72.8717   -7.8289 O.3     1  UNL1       -0.3263
     37 H          16.7739   68.9871   -6.3388 H       1  UNL1        0.2105
     38 H          16.8211   71.2674   -9.4837 H       1  UNL1        0.2105
     39 C          16.5620   72.1684   -3.8067 C.2     1  UNL1        0.2231
     40 C          16.5274   72.1649   -2.3009 C.3     1  UNL1        0.0946
     41 N          17.7414   72.0963   -4.4547 N.am    1  UNL1       -0.2994
     42 O          15.5276   72.2362   -4.4373 O.2     1  UNL1       -0.2751
     43 H          18.5688   72.0431   -3.9509 H       1  UNL1        0.1496
     44 C          19.2928   71.6329   -9.8884 C.3     1  UNL1        0.1693
     45 O          18.7305   70.4479  -10.4557 O.3     1  UNL1       -0.3794
     46 H          18.7490   70.4268  -11.4223 H       1  UNL1        0.2105
@<TRIPOS>BOND
     1    29    30    1
     2    30    41    1
     3    30    31    1
     4    31    34    1
     5    31    32    1
     6    32    35    1
     7    32    33    1
     8    33    36    1
     9    33    44    1
    10    39    40    1
    11    39    42    2
    12    39    41   am
    13    41    43    1
    14    29    28    1
    15    34    37    1
    16    35    38    1
    17    29    36    1
    18    44    45    1
    19    45    46    1
    20    15     6    1
    21    15    16   ar
    22    16    21    2
    23    16    17   ar
    24    17    23    1
    25    17    18   ar
    26    18    19   ar
    27    19    20   ar
    28    15    20   ar
    29    18    22    2
    30     6     7    1
    31     6    11    1
    32     7     9    1
    33     7     8    1
    34     8    13    1
    35     9    10    1
    36     9    12    1
    37    10     5    1
    38    10    11    1
    39    12    14    1
    40     5     4    1
    41     4     1    1
    42     1     2    1
    43     1    24    1
    44     1     3    2
    45    24    25    1
    46    28    25    1
    47    25    26    1
    48    25    27    2
@<TRIPOS>MOLECULE
UD2
 46 48 0 0 0
SMALL
GASTEIGER

@<TRIPOS>ATOM
      1 P          22.8325   72.1059   -3.4383 P.3     1  UNL1        0.2189
      2 O          22.9051   72.6113   -4.9650 O.3     1  UNL1       -0.4371
      3 O          23.5577   70.8230   -3.3077 O.2     1  UNL1       -0.5170
      4 O          23.5098   73.2057   -2.4763 O.3     1  UNL1       -0.3112
      5 C          22.7777   74.2864   -1.8954 C.3     1  UNL1        0.1811
      6 C          25.9300   76.0124   -2.0404 C.3     1  UNL1        0.2383
      7 C          25.1124   76.5942   -3.2216 C.3     1  UNL1        0.1895
      8 O          25.4772   77.9524   -3.4743 O.3     1  UNL1       -0.3779
      9 C          23.6613   76.5018   -2.6895 C.3     1  UNL1        0.1713
     10 C          23.7349   75.4379   -1.5777 C.3     1  UNL1        0.1764
     11 O          25.0865   74.9531   -1.5383 O.3     1  UNL1       -0.3308
     12 O          23.2458   77.7588   -2.1528 O.3     1  UNL1       -0.3794
     13 H          24.9934   78.3605   -4.2051 H       1  UNL1        0.2106
     14 H          23.2381   78.4793   -2.7972 H       1  UNL1        0.2105
     15 N          27.2078   75.4748   -2.5128 N.ar    1  UNL1       -0.2551
     16 C          27.3191   75.0370   -3.7796 C.ar    1  UNL1        0.3323
     17 N          28.4813   74.5379   -4.2405 N.ar    1  UNL1       -0.2743
     18 C          29.5592   74.4712   -3.4328 C.ar    1  UNL1        0.2626
     19 C          29.4565   74.9295   -2.0973 C.ar    1  UNL1        0.0795
     20 C          28.2802   75.4290   -1.6631 C.ar    1  UNL1        0.0869
     21 O          26.3555   75.0913   -4.5191 O.2     1  UNL1       -0.2464
     22 O          30.6117   74.0201   -3.8489 O.2     1  UNL1       -0.2670
     23 H          28.5440   74.2254   -5.1562 H       1  UNL1        0.1734
     24 O          21.2930   71.8981   -3.0141 O.3     1  UNL1       -0.2703
     25 P          20.2392   70.6926   -3.1854 P.3     1  UNL1        0.2208
     26 O          20.9653   69.2943   -2.8521 O.3     1  UNL1       -0.4371
     27 O          19.1052   70.8926   -2.2567 O.2     1  UNL1       -0.5170
     28 O          19.6946   70.6673   -4.7005 O.3     1  UNL1       -0.2865
     29 C          19.2390   71.8365   -5.3836 C.3     1  UNL1        0.2611
     30 C          17.7253   71.7490   -5.5931 C.3     1  UNL1        0.1582
     31 C          17.4103   70.5400   -6.4795 C.3     1  UNL1        0.1625
     32 C          18.1722   70.6768   -7.8006 C.3     1  UNL1        0.1686
     33 C          19.6690   70.8057   -7.5059 C.3     1  UNL1        0.1760
     34 O          16.0058   70.4929   -6.7409 O.3     1  UNL1       -0.3801
     35 O          17.7196   71.8407   -8.4947 O.3     1  UNL1       -0.3794
     36 O          19.8898   71.9304   -6.6525 O.3     1  UNL1       -0.3263
     37 H          15.7344   69.7500   -7.2973 H       1  UNL1        0.2105
     38 H          18.1611   71.9905   -9.3424 H       1  UNL1        0.2105
     39 C          15.9341   72.2827   -4.0297 C.2     1  UNL1        0.2231
     40 C          15.2496   72.1222   -2.6977 C.3     1  UNL1        0.0946
     41 N          17.0602   71.5925   -4.2971 N.am    1  UNL1       -0.2994
     42 O          15.4718   73.0340   -4.8628 O.2     1  UNL1       -0.2751
     43 H          17.4307   70.9925   -3.6309 H       1  UNL1        0.1496
     44 C          20.4317   71.0027   -8.8173 C.3     1  UNL1        0.1693
     45 O          21.3099   72.1234   -8.6948 O.3     1  UNL1       -0.3794
     46 H          21.8268   72.3077   -9.4910 H       1  UNL1        0.2105
@<TRIPOS>BOND
     1    29    30    1
     2    30    41    1
     3    30    31    1
     4    31    34    1
     5    31    32    1
     6    32    35    1
     7    32    33    1
     8    33    36    1
     9    33    44    1
    10    39    40    1
    11    39    42    2
    12    39    41   am
    13    41    43    1
    14    29    28    1
    15    34    37    1
    16    35    38    1
    17    29    36    1
    18    44    45    1
    19    45    46    1
    20    15     6    1
    21    15    16   ar
    22    16    21    2
    23    16    17   ar
    24    17    23    1
    25    17    18   ar
    26    18    19   ar
    27    19    20   ar
    28    15    20   ar
    29    18    22    2
    30     6     7    1
    31     6    11    1
    32     7     9    1
    33     7     8    1
    34     8    13    1
    35     9    10    1
    36     9    12    1
    37    10     5    1
    38    10    11    1
    39    12    14    1
    40     5     4    1
    41     4     1    1
    42     1     2    1
    43     1    24    1
    44     1     3    2
    45    24    25    1
    46    28    25    1
    47    25    26    1
    48    25    27    2
@<TRIPOS>MOLECULE
UD2
 46 48 0 0 0
SMALL
GASTEIGER

@<TRIPOS>ATOM
      1 P          21.7069   71.1420    0.3169 P.3     1  UNL1        0.2189
      2 O          21.5955   69.5576    0.5788 O.3     1  UNL1       -0.4371
      3 O          23.1085   71.4926   -0.0017 O.2     1  UNL1       -0.5170
      4 O          20.7575   71.5496   -0.9185 O.3     1  UNL1       -0.3112
      5 C          21.0931   72.5802   -1.8495 C.3     1  UNL1        0.1811
      6 C          20.5561   71.7907   -5.3172 C.3     1  UNL1        0.2383
      7 C          21.3810   73.1026   -5.3394 C.3     1  UNL1        0.1895
      8 O          22.2123   73.1628   -6.5000 O.3     1  UNL1       -0.3779
      9 C          22.2350   72.9717   -4.0545 C.3     1  UNL1        0.1713
     10 C          21.4664   71.9509   -3.1939 C.3     1  UNL1        0.1764
     11 O          20.2757   71.5946   -3.9142 O.3     1  UNL1       -0.3308
     12 O          23.5386   72.4798   -4.3699 O.3     1  UNL1       -0.3794
     13 H          22.7477   73.9656   -6.5595 H       1  UNL1        0.2106
     14 H          24.0455   73.0556   -4.9580 H       1  UNL1        0.2105
     15 N          19.3129   71.9503   -6.0748 N.ar    1  UNL1       -0.2551
     16 C          19.1200   71.2347   -7.1972 C.ar    1  UNL1        0.3323
     17 N          17.9872   71.3613   -7.9134 N.ar    1  UNL1       -0.2743
     18 C          17.0217   72.2126   -7.5114 C.ar    1  UNL1        0.2626
     19 C          17.2110   72.9713   -6.3313 C.ar    1  UNL1        0.0795
     20 C          18.3547   72.8212   -5.6306 C.ar    1  UNL1        0.0869
     21 O          19.9820   70.4632   -7.5714 O.2     1  UNL1       -0.2464
     22 O          15.9957   72.3278   -8.1585 O.2     1  UNL1       -0.2670
     23 H          17.8648   70.8388   -8.7209 H       1  UNL1        0.1734
     24 O          21.2408   71.9386    1.6366 O.3     1  UNL1       -0.2703
     25 P          21.1245   73.4987    2.0179 P.3     1  UNL1        0.2208
     26 O          22.5602   74.2045    1.8322 O.3     1  UNL1       -0.4371
     27 O          20.1363   74.1512    1.1313 O.2     1  UNL1       -0.5170
     28 O          20.6494   73.6427    3.5496 O.3     1  UNL1       -0.2865
     29 C          20.2490   74.8868    4.1268 C.3     1  UNL1        0.2611
     30 C          21.0727   75.1534    5.3891 C.3     1  UNL1        0.1582
     31 C          20.7893   74.0520    6.4153 C.3     1  UNL1        0.1625
     32 C          19.2857   74.0103    6.7014 C.3     1  UNL1        0.1686
     33 C          18.5308   73.7877    5.3882 C.3     1  UNL1        0.1760
     34 O          21.4980   74.3327    7.6245 O.3     1  UNL1       -0.3801
     35 O          18.8759   75.2486    7.2845 O.3     1  UNL1       -0.3794
     36 O          18.8624   74.8290    4.4675 O.3     1  UNL1       -0.3263
     37 H          21.3648   73.6739    8.3199 H       1  UNL1        0.2105
     38 H          17.9320   75.2931    7.4918 H       1  UNL1        0.2105
     39 C          23.2242   74.0265    5.1913 C.2     1  UNL1        0.2231
     40 C          24.6899   74.0257    4.8448 C.3     1  UNL1        0.0946
     41 N          22.4985   75.1535    5.0520 N.am    1  UNL1       -0.2994
     42 O          22.6959   73.0121    5.5963 O.2     1  UNL1       -0.2751
     43 H          22.9207   75.9650    4.7292 H       1  UNL1        0.1496
     44 C          17.0248   73.8044    5.6568 C.3     1  UNL1        0.1693
     45 O          16.7723   73.3464    6.9868 O.3     1  UNL1       -0.3794
     46 H          15.8358   73.3306    7.2268 H       1  UNL1        0.2105
@<TRIPOS>BOND
     1    29    30    1
     2    30    41    1
     3    30    31    1
     4    31    34    1
     5    31    32    1
     6    32    35    1
     7    32    33    1
     8    33    36    1
     9    33    44    1
    10    39    40    1
    11    39    42    2
    12    39    41   am
    13    41    43    1
    14    29    28    1
    15    34    37    1
    16    35    38    1
    17    29    36    1
    18    44    45    1
    19    45    46    1
    20    15     6    1
    21    15    16   ar
    22    16    21    2
    23    16    17   ar
    24    17    23    1
    25    17    18   ar
    26    18    19   ar
    27    19    20   ar
    28    15    20   ar
    29    18    22    2
    30     6     7    1
    31     6    11    1
    32     7     9    1
    33     7     8    1
    34     8    13    1
    35     9    10    1
    36     9    12    1
    37    10     5    1
    38    10    11    1
    39    12    14    1
    40     5     4    1
    41     4     1    1
    42     1     2    1
    43     1    24    1
    44     1     3    2
    45    24    25    1
    46    28    25    1
    47    25    26    1
    48    25    27    2
@<TRIPOS>MOLECULE
UD2
 46 48 0 0 0
SMALL
GASTEIGER

@<TRIPOS>ATOM
      1 P          20.9513   72.2180   -3.8472 P.3     1  UNL1        0.2189
      2 O          20.6247   73.6985   -4.3883 O.3     1  UNL1       -0.4371
      3 O          22.3321   71.8467   -4.2271 O.2     1  UNL1       -0.5170
      4 O          20.8099   72.1898   -2.2431 O.3     1  UNL1       -0.3112
      5 C          21.3237   73.2221   -1.3994 C.3     1  UNL1        0.1811
      6 C          23.1322   72.4186    1.6039 C.3     1  UNL1        0.2383
      7 C          22.3838   71.1116    1.2382 C.3     1  UNL1        0.1895
      8 O          23.1235   69.9647    1.6616 O.3     1  UNL1       -0.3779
      9 C          22.3253   71.1917   -0.3070 C.3     1  UNL1        0.1713
     10 C          22.5243   72.6882   -0.6142 C.3     1  UNL1        0.1764
     11 O          22.6289   73.3731    0.6442 O.3     1  UNL1       -0.3308
     12 O          23.3767   70.4176   -0.8868 O.3     1  UNL1       -0.3794
     13 H          22.6958   69.1225    1.4557 H       1  UNL1        0.2106
     14 H          23.3342   69.4751   -0.6763 H       1  UNL1        0.2105
     15 N          22.8037   72.8365    2.9687 N.ar    1  UNL1       -0.2551
     16 C          21.5954   72.5449    3.4823 C.ar    1  UNL1        0.3323
     17 N          21.2664   72.9168    4.7336 N.ar    1  UNL1       -0.2743
     18 C          22.1513   73.5905    5.4962 C.ar    1  UNL1        0.2626
     19 C          23.4272   73.9032    4.9686 C.ar    1  UNL1        0.0795
     20 C          23.7317   73.5144    3.7126 C.ar    1  UNL1        0.0869
     21 O          20.7876   71.9377    2.8061 O.2     1  UNL1       -0.2464
     22 O          21.8549   73.9273    6.6290 O.2     1  UNL1       -0.2670
     23 H          20.3904   72.6995    5.0880 H       1  UNL1        0.1734
     24 O          19.9155   71.1688   -4.4950 O.3     1  UNL1       -0.2703
     25 P          18.3099   71.0461   -4.5080 P.3     1  UNL1        0.2208
     26 O          17.8918   69.4994   -4.6712 O.3     1  UNL1       -0.4371
     27 O          17.7644   71.5725   -3.2377 O.2     1  UNL1       -0.5170
     28 O          17.7168   71.8959   -5.7403 O.3     1  UNL1       -0.2865
     29 C          16.4383   71.6347   -6.3221 C.3     1  UNL1        0.2611
     30 C          16.5366   71.7496   -7.8452 C.3     1  UNL1        0.1582
     31 C          16.9325   73.1822   -8.2160 C.3     1  UNL1        0.1625
     32 C          15.9061   74.1530   -7.6258 C.3     1  UNL1        0.1686
     33 C          15.8321   73.9454   -6.1107 C.3     1  UNL1        0.1760
     34 O          16.9551   73.3179   -9.6388 O.3     1  UNL1       -0.3801
     35 O          14.6244   73.9038   -8.2057 O.3     1  UNL1       -0.3794
     36 O          15.4900   72.5859   -5.8340 O.3     1  UNL1       -0.3263
     37 H          17.1994   74.2020   -9.9453 H       1  UNL1        0.2105
     38 H          13.9235   74.4838   -7.8764 H       1  UNL1        0.2105
     39 C          18.8325   71.2175   -8.4643 C.2     1  UNL1        0.2231
     40 C          19.8767   70.2593   -8.9745 C.3     1  UNL1        0.0946
     41 N          17.5516   70.8170   -8.3418 N.am    1  UNL1       -0.2994
     42 O          19.1443   72.3508   -8.1634 O.2     1  UNL1       -0.2751
     43 H          17.3017   69.9113   -8.5832 H       1  UNL1        0.1496
     44 C          14.7657   74.8703   -5.5209 C.3     1  UNL1        0.1693
     45 O          15.3959   75.8896   -4.7423 O.3     1  UNL1       -0.3794
     46 H          14.7786   76.5137   -4.3369 H       1  UNL1        0.2105
@<TRIPOS>BOND
     1    29    30    1
     2    30    41    1
     3    30    31    1
     4    31    34    1
     5    31    32    1
     6    32    35    1
     7    32    33    1
     8    33    36    1
     9    33    44    1
    10    39    40    1
    11    39    42    2
    12    39    41   am
    13    41    43    1
    14    29    28    1
    15    34    37    1
    16    35    38    1
    17    29    36    1
    18    44    45    1
    19    45    46    1
    20    15     6    1
    21    15    16   ar
    22    16    21    2
    23    16    17   ar
    24    17    23    1
    25    17    18   ar
    26    18    19   ar
    27    19    20   ar
    28    15    20   ar
    29    18    22    2
    30     6     7    1
    31     6    11    1
    32     7     9    1
    33     7     8    1
    34     8    13    1
    35     9    10    1
    36     9    12    1
    37    10     5    1
    38    10    11    1
    39    12    14    1
    40     5     4    1
    41     4     1    1
    42     1     2    1
    43     1    24    1
    44     1     3    2
    45    24    25    1
    46    28    25    1
    47    25    26    1
    48    25    27    2
@<TRIPOS>MOLECULE
UD2
 46 48 0 0 0
SMALL
GASTEIGER

@<TRIPOS>ATOM
      1 P          22.0430   70.4494   -0.1536 P.3     1  UNL1        0.2189
      2 O          21.2640   70.9529    1.1621 O.3     1  UNL1       -0.4371
      3 O          22.9120   69.3039    0.1950 O.2     1  UNL1       -0.5170
      4 O          20.9740   69.9927   -1.2682 O.3     1  UNL1       -0.3112
      5 C          21.0656   70.3841   -2.6393 C.3     1  UNL1        0.1811
      6 C          18.4996   70.9251   -5.1009 C.3     1  UNL1        0.2383
      7 C          18.1366   69.5653   -4.4520 C.3     1  UNL1        0.1895
      8 O          16.7227   69.3585   -4.4580 O.3     1  UNL1       -0.3779
      9 C          18.6626   69.7438   -3.0067 C.3     1  UNL1        0.1713
     10 C          19.6991   70.8779   -3.1206 C.3     1  UNL1        0.1764
     11 O          19.7744   71.2511   -4.5057 O.3     1  UNL1       -0.3308
     12 O          17.5989   70.1238   -2.1320 O.3     1  UNL1       -0.3794
     13 H          16.4458   68.5207   -4.0629 H       1  UNL1        0.2106
     14 H          16.8887   69.4711   -2.0685 H       1  UNL1        0.2105
     15 N          18.6284   70.7856   -6.5531 N.ar    1  UNL1       -0.2551
     16 C          17.5243   70.7598   -7.3206 C.ar    1  UNL1        0.3323
     17 N          17.6129   70.6324   -8.6578 N.ar    1  UNL1       -0.2743
     18 C          18.8194   70.5298   -9.2514 C.ar    1  UNL1        0.2626
     19 C          19.9900   70.5565   -8.4557 C.ar    1  UNL1        0.0795
     20 C          19.8717   70.6895   -7.1179 C.ar    1  UNL1        0.0869
     21 O          16.4298   70.8516   -6.7991 O.2     1  UNL1       -0.2464
     22 O          18.9010   70.4148  -10.4616 O.2     1  UNL1       -0.2670
     23 H          16.8067   70.6144   -9.1963 H       1  UNL1        0.1734
     24 O          22.9448   71.6498   -0.7360 O.3     1  UNL1       -0.2703
     25 P          22.8005   73.2536   -0.7447 P.3     1  UNL1        0.2208
     26 O          21.3018   73.6548   -1.1765 O.3     1  UNL1       -0.4371
     27 O          23.0816   73.7819    0.6082 O.2     1  UNL1       -0.5170
     28 O          23.8480   73.8808   -1.7945 O.3     1  UNL1       -0.2865
     29 C          23.9040   75.2756   -2.0993 C.3     1  UNL1        0.2611
     30 C          24.5411   75.4726   -3.4770 C.3     1  UNL1        0.1582
     31 C          25.9790   74.9453   -3.4451 C.3     1  UNL1        0.1625
     32 C          26.7523   75.6687   -2.3392 C.3     1  UNL1        0.1686
     33 C          26.0297   75.4640   -1.0050 C.3     1  UNL1        0.1760
     34 O          26.6058   75.1920   -4.7059 O.3     1  UNL1       -0.3801
     35 O          26.8191   77.0644   -2.6375 O.3     1  UNL1       -0.3794
     36 O          24.6892   75.9473   -1.1120 O.3     1  UNL1       -0.3263
     37 H          27.5205   74.8824   -4.7572 H       1  UNL1        0.2105
     38 H          27.2957   77.5862   -1.9767 H       1  UNL1        0.2105
     39 C          22.9718   75.3996   -5.3396 C.2     1  UNL1        0.2231
     40 C          22.1803   74.6423   -6.3734 C.3     1  UNL1        0.0946
     41 N          23.7713   74.7352   -4.4820 N.am    1  UNL1       -0.2994
     42 O          22.8899   76.6086   -5.2785 O.2     1  UNL1       -0.2751
     43 H          23.8364   73.7685   -4.5299 H       1  UNL1        0.1496
     44 C          26.7632   76.2333    0.0953 C.3     1  UNL1        0.1693
     45 O          28.0042   75.5860    0.3839 O.3     1  UNL1       -0.3794
     46 H          28.5238   76.0204    1.0741 H       1  UNL1        0.2105
@<TRIPOS>BOND
     1    29    30    1
     2    30    41    1
     3    30    31    1
     4    31    34    1
     5    31    32    1
     6    32    35    1
     7    32    33    1
     8    33    36    1
     9    33    44    1
    10    39    40    1
    11    39    42    2
    12    39    41   am
    13    41    43    1
    14    29    28    1
    15    34    37    1
    16    35    38    1
    17    29    36    1
    18    44    45    1
    19    45    46    1
    20    15     6    1
    21    15    16   ar
    22    16    21    2
    23    16    17   ar
    24    17    23    1
    25    17    18   ar
    26    18    19   ar
    27    19    20   ar
    28    15    20   ar
    29    18    22    2
    30     6     7    1
    31     6    11    1
    32     7     9    1
    33     7     8    1
    34     8    13    1
    35     9    10    1
    36     9    12    1
    37    10     5    1
    38    10    11    1
    39    12    14    1
    40     5     4    1
    41     4     1    1
    42     1     2    1
    43     1    24    1
    44     1     3    2
    45    24    25    1
    46    28    25    1
    47    25    26    1
    48    25    27    2
@<TRIPOS>MOLECULE
UD2
 46 48 0 0 0
SMALL
GASTEIGER

@<TRIPOS>ATOM
      1 P          20.5595   75.2936   -1.3023 P.3     1  UNL1        0.2189
      2 O          20.8353   76.5232   -2.3041 O.3     1  UNL1       -0.4371
      3 O          19.7586   75.7646   -0.1510 O.2     1  UNL1       -0.5170
      4 O          19.7521   74.1379   -2.0809 O.3     1  UNL1       -0.3112
      5 C          20.3864   72.9805   -2.6282 C.3     1  UNL1        0.1811
      6 C          18.6441   70.8253   -4.9208 C.3     1  UNL1        0.2383
      7 C          19.7477   69.9283   -4.3049 C.3     1  UNL1        0.1895
      8 O          19.3207   68.5662   -4.2400 O.3     1  UNL1       -0.3779
      9 C          19.8995   70.5277   -2.8854 C.3     1  UNL1        0.1713
     10 C          19.3220   71.9502   -3.0136 C.3     1  UNL1        0.1764
     11 O          18.9380   72.1340   -4.3856 O.3     1  UNL1       -0.3308
     12 O          19.1481   69.7658   -1.9391 O.3     1  UNL1       -0.3794
     13 H          19.9773   67.9655   -3.8624 H       1  UNL1        0.2106
     14 H          19.4311   68.8448   -1.8610 H       1  UNL1        0.2105
     15 N          18.7404   70.8316   -6.3822 N.ar    1  UNL1       -0.2551
     16 C          17.6584   70.5318   -7.1227 C.ar    1  UNL1        0.3323
     17 N          17.7182   70.5297   -8.4675 N.ar    1  UNL1       -0.2743
     18 C          18.8723   70.8323   -9.0961 C.ar    1  UNL1        0.2626
     19 C          20.0188   71.1509   -8.3291 C.ar    1  UNL1        0.0795
     20 C          19.9290   71.1494   -6.9824 C.ar    1  UNL1        0.0869
     21 O          16.6111   70.2572   -6.5694 O.2     1  UNL1       -0.2464
     22 O          18.9277   70.8311  -10.3132 O.2     1  UNL1       -0.2670
     23 H          16.9291   70.3100   -8.9862 H       1  UNL1        0.1734
     24 O          21.9629   74.7051   -0.7755 O.3     1  UNL1       -0.2703
     25 P          23.1353   75.2836    0.1645 P.3     1  UNL1        0.2208
     26 O          24.5212   74.5440   -0.1905 O.3     1  UNL1       -0.4371
     27 O          23.2800   76.7378   -0.0653 O.2     1  UNL1       -0.5170
     28 O          22.7651   75.0181    1.7089 O.3     1  UNL1       -0.2865
     29 C          23.4317   74.0430    2.5126 C.3     1  UNL1        0.2611
     30 C          22.6188   72.7461    2.5222 C.3     1  UNL1        0.1582
     31 C          21.2510   73.0157    3.1569 C.3     1  UNL1        0.1625
     32 C          21.4561   73.5826    4.5644 C.3     1  UNL1        0.1686
     33 C          22.3140   74.8476    4.4760 C.3     1  UNL1        0.1760
     34 O          20.5129   71.7942    3.2369 O.3     1  UNL1       -0.3801
     35 O          22.1173   72.6124    5.3784 O.3     1  UNL1       -0.3794
     36 O          23.5590   74.5340    3.8487 O.3     1  UNL1       -0.3263
     37 H          19.6343   71.8910    3.6291 H       1  UNL1        0.2105
     38 H          22.2809   72.9050    6.2859 H       1  UNL1        0.2105
     39 C          22.6444   70.9758    0.8480 C.2     1  UNL1        0.2231
     40 C          22.4566   70.4885   -0.5647 C.3     1  UNL1        0.0946
     41 N          22.4361   72.2730    1.1477 N.am    1  UNL1       -0.2994
     42 O          22.9837   70.2002    1.7173 O.2     1  UNL1       -0.2751
     43 H          22.1658   72.8936    0.4528 H       1  UNL1        0.1496
     44 C          22.5735   75.3869    5.8840 C.3     1  UNL1        0.1693
     45 O          23.9788   75.3848    6.1441 O.3     1  UNL1       -0.3794
     46 H          24.2174   75.7149    7.0211 H       1  UNL1        0.2105
@<TRIPOS>BOND
     1    29    30    1
     2    30    41    1
     3    30    31    1
     4    31    34    1
     5    31    32    1
     6    32    35    1
     7    32    33    1
     8    33    36    1
     9    33    44    1
    10    39    40    1
    11    39    42    2
    12    39    41   am
    13    41    43    1
    14    29    28    1
    15    34    37    1
    16    35    38    1
    17    29    36    1
    18    44    45    1
    19    45    46    1
    20    15     6    1
    21    15    16   ar
    22    16    21    2
    23    16    17   ar
    24    17    23    1
    25    17    18   ar
    26    18    19   ar
    27    19    20   ar
    28    15    20   ar
    29    18    22    2
    30     6     7    1
    31     6    11    1
    32     7     9    1
    33     7     8    1
    34     8    13    1
    35     9    10    1
    36     9    12    1
    37    10     5    1
    38    10    11    1
    39    12    14    1
    40     5     4    1
    41     4     1    1
    42     1     2    1
    43     1    24    1
    44     1     3    2
    45    24    25    1
    46    28    25    1
    47    25    26    1
    48    25    27    2
