@<TRIPOS>MOLECULE
*****
 43 45 0 0 0
SMALL
GASTEIGER

@<TRIPOS>ATOM
      1 P          22.9659   71.6552   -2.6737 P.3     1  UNL1        0.2189
      2 O          23.7849   72.9635   -3.1600 O.co2   1  UNL1       -0.4371
      3 O          23.4604   70.3538   -3.2336 O.2     1  UNL1       -0.5170
      4 O          21.4234   72.0193   -2.9994 O.3     1  UNL1       -0.3112
      5 C          20.5932   71.0136   -3.5506 C.3     1  UNL1        0.1811
      6 O          18.7229   71.9954   -4.6977 O.3     1  UNL1       -0.3308
      7 O          17.0170   70.8330   -2.5228 O.3     1  UNL1       -0.3794
      8 O          16.6524   69.0712   -4.5720 O.3     1  UNL1       -0.3779
      9 C          18.1878   70.2950   -3.1378 C.3     1  UNL1        0.1713
     10 C          17.8654   69.7932   -4.5294 C.3     1  UNL1        0.1895
     11 C          19.1385   71.4485   -3.4275 C.3     1  UNL1        0.1764
     12 C          17.8046   71.0861   -5.3247 C.3     1  UNL1        0.2383
     13 H          16.3944   70.1145   -2.3282 H       1  UNL1        0.2105
     14 H          16.7423   68.2570   -4.0513 H       1  UNL1        0.2106
     15 O          16.0101   70.4745   -7.4181 O.2     1  UNL1       -0.2464
     16 O          19.3944   70.4126  -10.5464 O.2     1  UNL1       -0.2670
     17 N          18.1899   70.9048   -6.6957 N.ar    1  UNL1       -0.2551
     18 N          17.6975   70.4432   -8.9740 N.ar    1  UNL1       -0.2743
     19 C          17.2101   70.5996   -7.6698 C.ar    1  UNL1        0.3323
     20 C          19.5239   71.0309   -7.0637 C.ar    1  UNL1        0.0869
     21 C          19.9734   70.8791   -8.3110 C.ar    1  UNL1        0.0795
     22 C          19.0145   70.5582   -9.3885 C.ar    1  UNL1        0.2626
     23 H          17.0343   70.2284   -9.6692 H       1  UNL1        0.1734
     24 O          23.0324   71.7637   -1.0623 O.3     1  UNL1       -0.2703
     25 P          22.5034   70.7626    0.0917 P.3     1  UNL1        0.2208
     26 O          23.6657   69.6385    0.1675 O.co2   1  UNL1       -0.4371
     27 O          21.1274   70.2138   -0.1525 O.2     1  UNL1       -0.5170
     28 O          22.6567   71.6000    1.4619 O.3     1  UNL1       -0.2858
     29 O          21.7404   72.4759    3.4625 O.3     1  UNL1       -0.3226
     30 O          21.4276   75.7083    0.9088 O.3     1  UNL1       -0.3794
     31 O          20.7797   73.0165   -0.0234 O.3     1  UNL1       -0.3775
     32 O          23.4991   75.6546    2.9475 O.3     1  UNL1       -0.3792
     33 C          22.0082   74.5155    1.4360 C.3     1  UNL1        0.1718
     34 C          21.0014   73.3692    1.3372 C.3     1  UNL1        0.1968
     35 C          22.3770   74.7754    2.8983 C.3     1  UNL1        0.1723
     36 C          21.4979   72.1380    2.0963 C.3     1  UNL1        0.2706
     37 C          22.7397   73.4807    3.6200 C.3     1  UNL1        0.1830
     38 H          21.1850   75.5670   -0.0199 H       1  UNL1        0.2105
     39 H          20.4647   73.7933   -0.5111 H       1  UNL1        0.2106
     40 H          23.2815   76.4825    2.4915 H       1  UNL1        0.2106
     41 O          21.8154   72.9517    5.7098 O.co2   1  UNL1       -0.5466
     42 O          23.5588   74.4211    5.6854 O.co2   1  UNL1       -0.5466
     43 C          22.7751   73.6898    5.0989 C.2     1  UNL1        0.0799
@<TRIPOS>UNITY_ATOM_ATTR
2 1
charge -1
26 1
charge -1
41 1
charge -1
@<TRIPOS>BOND
     1     1     4    1
     2     1    24    1
     3     1     2    1
     4     1     3    2
     5    25    28    1
     6    25    24    1
     7    25    26    1
     8    25    27    2
     9     6    11    1
    10     6    12    1
    11    29    36    1
    12    29    37    1
    13     7     9    1
    14     7    13    1
    15     8    10    1
    16     8    14    1
    17     4     5    1
    18    28    36    1
    19    30    33    1
    20    30    38    1
    21    31    34    1
    22    31    39    1
    23    32    35    1
    24    32    40    1
    25    41    43   ar
    26    15    19    2
    27    42    43   ar
    28    16    22    2
    29    17    12    1
    30    17    19   ar
    31    17    20   ar
    32    18    19   ar
    33    18    22   ar
    34    18    23    1
    35     9    10    1
    36     9    11    1
    37    10    12    1
    38    11     5    1
    39    33    34    1
    40    33    35    1
    41    34    36    1
    42    35    37    1
    43    37    43    1
    44    20    21   ar
    45    21    22   ar
@<TRIPOS>MOLECULE
*****
 43 45 0 0 0
SMALL
GASTEIGER

@<TRIPOS>ATOM
      1 P          22.8770   71.6496   -2.3821 P.3     1  UNL1        0.2189
      2 O          23.4386   73.1401   -2.6684 O.co2   1  UNL1       -0.4371
      3 O          23.4444   70.5781   -3.2663 O.2     1  UNL1       -0.5170
      4 O          21.2692   71.8238   -2.4324 O.3     1  UNL1       -0.3112
      5 C          20.5582   71.2316   -3.5039 C.3     1  UNL1        0.1811
      6 O          18.6508   72.1147   -4.6699 O.3     1  UNL1       -0.3308
      7 O          16.9906   70.9179   -2.4784 O.3     1  UNL1       -0.3794
      8 O          16.7047   69.1085   -4.4983 O.3     1  UNL1       -0.3779
      9 C          18.1843   70.4195   -3.0826 C.3     1  UNL1        0.1713
     10 C          17.8862   69.8814   -4.4661 C.3     1  UNL1        0.1895
     11 C          19.0863   71.6070   -3.3902 C.3     1  UNL1        0.1764
     12 C          17.7728   71.1572   -5.2830 C.3     1  UNL1        0.2383
     13 H          16.3983   70.1773   -2.2727 H       1  UNL1        0.2105
     14 H          16.8276   68.3076   -3.9640 H       1  UNL1        0.2106
     15 O          16.0304   70.3374   -7.3490 O.2     1  UNL1       -0.2464
     16 O          19.3997   70.4693  -10.4914 O.2     1  UNL1       -0.2670
     17 N          18.1683   70.9695   -6.6502 N.ar    1  UNL1       -0.2551
     18 N          17.7104   70.4029   -8.9119 N.ar    1  UNL1       -0.2743
     19 C          17.2150   70.5554   -7.6103 C.ar    1  UNL1        0.3323
     20 C          19.4861   71.1963   -7.0284 C.ar    1  UNL1        0.0869
     21 C          19.9434   71.0469   -8.2731 C.ar    1  UNL1        0.0795
     22 C          19.0120   70.6159   -9.3362 C.ar    1  UNL1        0.2626
     23 H          17.0657   70.1133   -9.5974 H       1  UNL1        0.1734
     24 O          23.1715   71.4475   -0.8056 O.3     1  UNL1       -0.2703
     25 P          22.2886   70.7562    0.3590 P.3     1  UNL1        0.2208
     26 O          23.2068   69.5081    0.8276 O.co2   1  UNL1       -0.4371
     27 O          20.8991   70.3770   -0.0646 O.2     1  UNL1       -0.5170
     28 O          22.3527   71.7944    1.5921 O.3     1  UNL1       -0.2858
     29 O          20.8114   73.2758    2.6113 O.3     1  UNL1       -0.3226
     30 O          24.2744   75.5288    2.6199 O.3     1  UNL1       -0.3794
     31 O          23.5503   73.9352    0.2810 O.3     1  UNL1       -0.3775
     32 O          23.3298   74.2955    5.0771 O.3     1  UNL1       -0.3792
     33 C          23.4983   74.3318    2.6739 C.3     1  UNL1        0.1718
     34 C          22.6889   74.1881    1.3849 C.3     1  UNL1        0.1968
     35 C          22.5634   74.4285    3.8816 C.3     1  UNL1        0.1723
     36 C          21.6769   73.0471    1.4987 C.3     1  UNL1        0.2706
     37 C          21.5049   73.3296    3.8560 C.3     1  UNL1        0.1830
     38 H          24.8762   75.4901    1.8600 H       1  UNL1        0.2105
     39 H          24.1952   74.6552    0.2031 H       1  UNL1        0.2106
     40 H          24.0074   74.9891    5.1056 H       1  UNL1        0.2106
     41 O          19.2007   73.5504    4.2348 O.co2   1  UNL1       -0.5466
     42 O          20.5843   73.8834    6.0164 O.co2   1  UNL1       -0.5466
     43 C          20.4146   73.6204    4.8353 C.2     1  UNL1        0.0799
@<TRIPOS>UNITY_ATOM_ATTR
2 1
charge -1
26 1
charge -1
41 1
charge -1
@<TRIPOS>BOND
     1     1     4    1
     2     1    24    1
     3     1     2    1
     4     1     3    2
     5    25    28    1
     6    25    24    1
     7    25    26    1
     8    25    27    2
     9     6    11    1
    10     6    12    1
    11    29    36    1
    12    29    37    1
    13     7     9    1
    14     7    13    1
    15     8    10    1
    16     8    14    1
    17     4     5    1
    18    28    36    1
    19    30    33    1
    20    30    38    1
    21    31    34    1
    22    31    39    1
    23    32    35    1
    24    32    40    1
    25    41    43   ar
    26    15    19    2
    27    42    43   ar
    28    16    22    2
    29    17    12    1
    30    17    19   ar
    31    17    20   ar
    32    18    19   ar
    33    18    22   ar
    34    18    23    1
    35     9    10    1
    36     9    11    1
    37    10    12    1
    38    11     5    1
    39    33    34    1
    40    33    35    1
    41    34    36    1
    42    35    37    1
    43    37    43    1
    44    20    21   ar
    45    21    22   ar
@<TRIPOS>MOLECULE
*****
 43 45 0 0 0
SMALL
GASTEIGER

@<TRIPOS>ATOM
      1 P          22.8594   71.8139   -2.4715 P.3     1  UNL1        0.2189
      2 O          23.6690   73.2074   -2.6183 O.co2   1  UNL1       -0.4371
      3 O          23.4524   70.6550   -3.2179 O.2     1  UNL1       -0.5170
      4 O          21.3404   72.2033   -2.8702 O.3     1  UNL1       -0.3112
      5 C          20.5735   71.2678   -3.6059 C.3     1  UNL1        0.1811
      6 O          18.6431   72.1186   -4.7579 O.3     1  UNL1       -0.3308
      7 O          17.0212   70.9194   -2.5391 O.3     1  UNL1       -0.3794
      8 O          16.7354   69.0907   -4.5416 O.3     1  UNL1       -0.3779
      9 C          18.2143   70.4306   -3.1524 C.3     1  UNL1        0.1713
     10 C          17.9078   69.8780   -4.5283 C.3     1  UNL1        0.1895
     11 C          19.0985   71.6263   -3.4790 C.3     1  UNL1        0.1764
     12 C          17.7702   71.1459   -5.3539 C.3     1  UNL1        0.2383
     13 H          16.4402   70.1734   -2.3213 H       1  UNL1        0.2105
     14 H          16.8738   68.2956   -4.0024 H       1  UNL1        0.2106
     15 O          16.0026   70.3453   -7.4060 O.2     1  UNL1       -0.2464
     16 O          19.3496   70.4333  -10.5736 O.2     1  UNL1       -0.2670
     17 N          18.1532   70.9520   -6.7238 N.ar    1  UNL1       -0.2551
     18 N          17.6715   70.3889   -8.9815 N.ar    1  UNL1       -0.2743
     19 C          17.1877   70.5486   -7.6763 C.ar    1  UNL1        0.3323
     20 C          19.4707   71.1625   -7.1120 C.ar    1  UNL1        0.0869
     21 C          19.9169   71.0063   -8.3600 C.ar    1  UNL1        0.0795
     22 C          18.9724   70.5857   -9.4157 C.ar    1  UNL1        0.2626
     23 H          17.0183   70.1066   -9.6618 H       1  UNL1        0.1734
     24 O          22.7740   71.6108   -0.8701 O.3     1  UNL1       -0.2703
     25 P          21.9960   70.5080    0.0199 P.3     1  UNL1        0.2208
     26 O          23.1889   69.5480    0.5450 O.co2   1  UNL1       -0.4371
     27 O          20.8997   69.7886   -0.7112 O.2     1  UNL1       -0.5170
     28 O          21.5110   71.3099    1.3330 O.3     1  UNL1       -0.2858
     29 O          22.1536   73.5791    1.1165 O.3     1  UNL1       -0.3226
     30 O          20.3585   73.5651    4.8374 O.3     1  UNL1       -0.3794
     31 O          22.1354   71.3869    4.0423 O.3     1  UNL1       -0.3775
     32 O          18.9602   74.6827    2.5469 O.3     1  UNL1       -0.3792
     33 C          20.5623   73.1485    3.4873 C.3     1  UNL1        0.1718
     34 C          21.9834   72.6078    3.3275 C.3     1  UNL1        0.1968
     35 C          20.3497   74.3628    2.5805 C.3     1  UNL1        0.1723
     36 C          22.3147   72.3669    1.8541 C.3     1  UNL1        0.2706
     37 C          20.8206   74.0836    1.1561 C.3     1  UNL1        0.1830
     38 H          20.4884   72.8097    5.4322 H       1  UNL1        0.2105
     39 H          21.9265   71.5323    4.9780 H       1  UNL1        0.2106
     40 H          18.6479   74.8625    3.4475 H       1  UNL1        0.2106
     41 O          21.0328   75.0866   -0.9535 O.co2   1  UNL1       -0.5466
     42 O          20.8960   76.4756    0.8496 O.co2   1  UNL1       -0.5466
     43 C          20.9181   75.3513    0.3716 C.2     1  UNL1        0.0799
@<TRIPOS>UNITY_ATOM_ATTR
2 1
charge -1
26 1
charge -1
41 1
charge -1
@<TRIPOS>BOND
     1     1     4    1
     2     1    24    1
     3     1     2    1
     4     1     3    2
     5    25    28    1
     6    25    24    1
     7    25    26    1
     8    25    27    2
     9     6    11    1
    10     6    12    1
    11    29    36    1
    12    29    37    1
    13     7     9    1
    14     7    13    1
    15     8    10    1
    16     8    14    1
    17     4     5    1
    18    28    36    1
    19    30    33    1
    20    30    38    1
    21    31    34    1
    22    31    39    1
    23    32    35    1
    24    32    40    1
    25    41    43   ar
    26    15    19    2
    27    42    43   ar
    28    16    22    2
    29    17    12    1
    30    17    19   ar
    31    17    20   ar
    32    18    19   ar
    33    18    22   ar
    34    18    23    1
    35     9    10    1
    36     9    11    1
    37    10    12    1
    38    11     5    1
    39    33    34    1
    40    33    35    1
    41    34    36    1
    42    35    37    1
    43    37    43    1
    44    20    21   ar
    45    21    22   ar
@<TRIPOS>MOLECULE
*****
 43 45 0 0 0
SMALL
GASTEIGER

@<TRIPOS>ATOM
      1 P          20.1900   74.5781   -5.1723 P.3     1  UNL1        0.2189
      2 O          18.9485   74.3948   -4.1506 O.co2   1  UNL1       -0.4371
      3 O          20.7207   75.9776   -5.2798 O.2     1  UNL1       -0.5170
      4 O          19.6583   73.9204   -6.5517 O.3     1  UNL1       -0.3112
      5 C          20.6059   73.5746   -7.5452 C.3     1  UNL1        0.1811
      6 O          19.8268   71.3449   -7.9912 O.3     1  UNL1       -0.3308
      7 O          18.2098   72.5533  -10.2085 O.3     1  UNL1       -0.3794
      8 O          16.3587   72.2208   -8.2340 O.3     1  UNL1       -0.3779
      9 C          18.5229   73.0892   -8.9228 C.3     1  UNL1        0.1713
     10 C          17.7074   72.3948   -7.8527 C.3     1  UNL1        0.1895
     11 C          19.9412   72.6634   -8.5690 C.3     1  UNL1        0.1764
     12 C          18.4463   71.0763   -7.6990 C.3     1  UNL1        0.2383
     13 H          17.3080   72.8121  -10.4563 H       1  UNL1        0.2105
     14 H          15.9321   73.0885   -8.3183 H       1  UNL1        0.2106
     15 O          16.2028   69.6758   -6.7082 O.2     1  UNL1       -0.2464
     16 O          18.1696   69.0767   -2.5831 O.2     1  UNL1       -0.2670
     17 N          18.3455   70.5434   -6.3698 N.ar    1  UNL1       -0.2551
     18 N          17.1841   69.3797   -4.6543 N.ar    1  UNL1       -0.2743
     19 C          17.1744   69.8562   -5.9718 C.ar    1  UNL1        0.3323
     20 C          19.3987   70.7020   -5.4773 C.ar    1  UNL1        0.0869
     21 C          19.3933   70.2421   -4.2246 C.ar    1  UNL1        0.0795
     22 C          18.2071   69.5133   -3.7295 C.ar    1  UNL1        0.2626
     23 H          16.3788   68.8997   -4.3537 H       1  UNL1        0.1734
     24 O          21.2612   73.4907   -4.6405 O.3     1  UNL1       -0.2703
     25 P          22.6323   73.6729   -3.8035 P.3     1  UNL1        0.2208
     26 O          23.0202   75.2231   -4.0621 O.co2   1  UNL1       -0.4371
     27 O          23.7118   72.6960   -4.1698 O.2     1  UNL1       -0.5170
     28 O          22.1777   73.6195   -2.2566 O.3     1  UNL1       -0.2858
     29 O          21.5490   71.5194   -1.3602 O.3     1  UNL1       -0.3226
     30 O          20.1121   74.1221    1.5084 O.3     1  UNL1       -0.3794
     31 O          19.8015   74.7307   -1.3319 O.3     1  UNL1       -0.3775
     32 O          22.5343   72.5939    2.0068 O.3     1  UNL1       -0.3792
     33 C          21.0028   73.6690    0.4890 C.3     1  UNL1        0.1718
     34 C          20.2307   73.4758   -0.8164 C.3     1  UNL1        0.1968
     35 C          21.6117   72.3423    0.9485 C.3     1  UNL1        0.1723
     36 C          21.0959   72.7760   -1.8654 C.3     1  UNL1        0.2706
     37 C          22.3526   71.6457   -0.1892 C.3     1  UNL1        0.1830
     38 H          19.7129   74.9642    1.2384 H       1  UNL1        0.2105
     39 H          19.2521   75.1803   -0.6713 H       1  UNL1        0.2106
     40 H          22.0753   73.0373    2.7373 H       1  UNL1        0.2106
     41 O          21.5471   69.6061    0.6432 O.co2   1  UNL1       -0.5466
     42 O          23.7451   69.6889    0.0422 O.co2   1  UNL1       -0.5466
     43 C          22.6544   70.2260    0.1652 C.2     1  UNL1        0.0799
@<TRIPOS>UNITY_ATOM_ATTR
2 1
charge -1
26 1
charge -1
41 1
charge -1
@<TRIPOS>BOND
     1     1     4    1
     2     1    24    1
     3     1     2    1
     4     1     3    2
     5    25    28    1
     6    25    24    1
     7    25    26    1
     8    25    27    2
     9     6    11    1
    10     6    12    1
    11    29    36    1
    12    29    37    1
    13     7     9    1
    14     7    13    1
    15     8    10    1
    16     8    14    1
    17     4     5    1
    18    28    36    1
    19    30    33    1
    20    30    38    1
    21    31    34    1
    22    31    39    1
    23    32    35    1
    24    32    40    1
    25    41    43   ar
    26    15    19    2
    27    42    43   ar
    28    16    22    2
    29    17    12    1
    30    17    19   ar
    31    17    20   ar
    32    18    19   ar
    33    18    22   ar
    34    18    23    1
    35     9    10    1
    36     9    11    1
    37    10    12    1
    38    11     5    1
    39    33    34    1
    40    33    35    1
    41    34    36    1
    42    35    37    1
    43    37    43    1
    44    20    21   ar
    45    21    22   ar
@<TRIPOS>MOLECULE
*****
 43 45 0 0 0
SMALL
GASTEIGER

@<TRIPOS>ATOM
      1 P          22.2089   70.9442   -1.5315 P.3     1  UNL1        0.2189
      2 O          23.0870   71.7259   -2.6436 O.co2   1  UNL1       -0.4371
      3 O          22.9967   70.3725   -0.3893 O.2     1  UNL1       -0.5170
      4 O          21.3483   69.8795   -2.3940 O.3     1  UNL1       -0.3112
      5 C          20.8258   70.2878   -3.6449 C.3     1  UNL1        0.1811
      6 O          19.1025   71.6385   -4.6365 O.3     1  UNL1       -0.3308
      7 O          17.3073   70.6127   -2.4648 O.3     1  UNL1       -0.3794
      8 O          16.5858   69.0852   -4.6054 O.3     1  UNL1       -0.3779
      9 C          18.3513   69.9387   -3.1678 C.3     1  UNL1        0.1713
     10 C          17.9016   69.5971   -4.5725 C.3     1  UNL1        0.1895
     11 C          19.4676   70.9416   -3.4256 C.3     1  UNL1        0.1764
     12 C          18.0257   70.9369   -5.2779 C.3     1  UNL1        0.2383
     13 H          16.5825   69.9920   -2.2887 H       1  UNL1        0.2105
     14 H          16.5593   68.2318   -4.1438 H       1  UNL1        0.2106
     15 O          16.0987   70.4459   -7.2834 O.2     1  UNL1       -0.2464
     16 O          19.2960   70.4109  -10.6031 O.2     1  UNL1       -0.2670
     17 N          18.3270   70.7951   -6.6743 N.ar    1  UNL1       -0.2551
     18 N          17.6931   70.4279   -8.9348 N.ar    1  UNL1       -0.2743
     19 C          17.2853   70.5497   -7.5999 C.ar    1  UNL1        0.3323
     20 C          19.6408   70.9007   -7.1146 C.ar    1  UNL1        0.0869
     21 C          20.0140   70.7824   -8.3903 C.ar    1  UNL1        0.0795
     22 C          18.9869   70.5246   -9.4208 C.ar    1  UNL1        0.2626
     23 H          16.9857   70.2548   -9.5973 H       1  UNL1        0.1734
     24 O          21.1036   72.0433   -1.1036 O.3     1  UNL1       -0.2703
     25 P          21.2629   73.5830   -0.6371 P.3     1  UNL1        0.2208
     26 O          19.7825   74.1950   -0.8697 O.co2   1  UNL1       -0.4371
     27 O          22.3585   74.3296   -1.3416 O.2     1  UNL1       -0.5170
     28 O          21.4261   73.5101    0.9662 O.3     1  UNL1       -0.2858
     29 O          23.3271   74.5491    1.9232 O.3     1  UNL1       -0.3226
     30 O          21.9624   72.2372    5.0634 O.3     1  UNL1       -0.3794
     31 O          22.0071   71.1660    2.3459 O.3     1  UNL1       -0.3775
     32 O          21.5146   75.1096    5.0637 O.3     1  UNL1       -0.3792
     33 C          21.8453   73.0344    3.8850 C.3     1  UNL1        0.1718
     34 C          22.6287   72.3819    2.7457 C.3     1  UNL1        0.1968
     35 C          22.4122   74.4218    4.1943 C.3     1  UNL1        0.1723
     36 C          22.7184   73.3159    1.5381 C.3     1  UNL1        0.2706
     37 C          22.5889   75.2475    2.9233 C.3     1  UNL1        0.1830
     38 H          21.6084   71.3506    4.8907 H       1  UNL1        0.2105
     39 H          21.9467   70.5686    3.1074 H       1  UNL1        0.2106
     40 H          21.3934   74.5944    5.8766 H       1  UNL1        0.2106
     41 O          24.1415   76.2981    4.3329 O.co2   1  UNL1       -0.5466
     42 O          23.4901   77.4391    2.4694 O.co2   1  UNL1       -0.5466
     43 C          23.4348   76.4508    3.1857 C.2     1  UNL1        0.0799
@<TRIPOS>UNITY_ATOM_ATTR
2 1
charge -1
26 1
charge -1
41 1
charge -1
@<TRIPOS>BOND
     1     1     4    1
     2     1    24    1
     3     1     2    1
     4     1     3    2
     5    25    28    1
     6    25    24    1
     7    25    26    1
     8    25    27    2
     9     6    11    1
    10     6    12    1
    11    29    36    1
    12    29    37    1
    13     7     9    1
    14     7    13    1
    15     8    10    1
    16     8    14    1
    17     4     5    1
    18    28    36    1
    19    30    33    1
    20    30    38    1
    21    31    34    1
    22    31    39    1
    23    32    35    1
    24    32    40    1
    25    41    43   ar
    26    15    19    2
    27    42    43   ar
    28    16    22    2
    29    17    12    1
    30    17    19   ar
    31    17    20   ar
    32    18    19   ar
    33    18    22   ar
    34    18    23    1
    35     9    10    1
    36     9    11    1
    37    10    12    1
    38    11     5    1
    39    33    34    1
    40    33    35    1
    41    34    36    1
    42    35    37    1
    43    37    43    1
    44    20    21   ar
    45    21    22   ar
@<TRIPOS>MOLECULE
*****
 43 45 0 0 0
SMALL
GASTEIGER

@<TRIPOS>ATOM
      1 P          22.6703   71.1799   -1.8880 P.3     1  UNL1        0.2189
      2 O          23.1683   70.6718   -3.3415 O.co2   1  UNL1       -0.4371
      3 O          23.1214   70.3350   -0.7328 O.2     1  UNL1       -0.5170
      4 O          21.0693   71.3386   -2.0595 O.3     1  UNL1       -0.3112
      5 C          20.5277   71.3542   -3.3675 C.3     1  UNL1        0.1811
      6 O          18.6391   72.2107   -4.5830 O.3     1  UNL1       -0.3308
      7 O          16.9416   71.0273   -2.4129 O.3     1  UNL1       -0.3794
      8 O          16.7102   69.1931   -4.4175 O.3     1  UNL1       -0.3779
      9 C          18.1510   70.5304   -2.9864 C.3     1  UNL1        0.1713
     10 C          17.8855   69.9746   -4.3695 C.3     1  UNL1        0.1895
     11 C          19.0512   71.7206   -3.2887 C.3     1  UNL1        0.1764
     12 C          17.7807   71.2403   -5.2032 C.3     1  UNL1        0.2383
     13 H          16.3501   70.2849   -2.2112 H       1  UNL1        0.2105
     14 H          16.8273   68.3992   -3.8716 H       1  UNL1        0.2106
     15 O          16.0890   70.3780   -7.2940 O.2     1  UNL1       -0.2464
     16 O          19.5206   70.5051  -10.3685 O.2     1  UNL1       -0.2670
     17 N          18.2059   71.0398   -6.5596 N.ar    1  UNL1       -0.2551
     18 N          17.8000   70.4412   -8.8230 N.ar    1  UNL1       -0.2743
     19 C          17.2765   70.6046   -7.5337 C.ar    1  UNL1        0.3323
     20 C          19.5289   71.2751   -6.9137 C.ar    1  UNL1        0.0869
     21 C          20.0130   71.1151   -8.1469 C.ar    1  UNL1        0.0795
     22 C          19.1079   70.6619   -9.2233 C.ar    1  UNL1        0.2626
     23 H          17.1723   70.1369   -9.5179 H       1  UNL1        0.1734
     24 O          23.1846   72.7116   -1.8432 O.3     1  UNL1       -0.2703
     25 P          23.4783   73.7678   -3.0314 P.3     1  UNL1        0.2208
     26 O          22.0143   74.3789   -3.3534 O.co2   1  UNL1       -0.4371
     27 O          24.1773   73.1771   -4.2216 O.2     1  UNL1       -0.5170
     28 O          24.2756   74.9753   -2.3179 O.3     1  UNL1       -0.2858
     29 O          25.4169   75.1743   -0.2523 O.3     1  UNL1       -0.3226
     30 O          23.6370   78.8872   -0.5905 O.3     1  UNL1       -0.3794
     31 O          22.1612   76.4675   -1.2987 O.3     1  UNL1       -0.3775
     32 O          26.4825   78.5812   -1.1005 O.3     1  UNL1       -0.3792
     33 C          24.2460   77.6860   -1.0640 C.3     1  UNL1        0.1718
     34 C          23.4134   76.4819   -0.6231 C.3     1  UNL1        0.1968
     35 C          25.6547   77.6047   -0.4716 C.3     1  UNL1        0.1723
     36 C          24.1497   75.1727   -0.9108 C.3     1  UNL1        0.2706
     37 C          26.2727   76.2269   -0.6913 C.3     1  UNL1        0.1830
     38 H          22.7404   78.9604   -0.9540 H       1  UNL1        0.2105
     39 H          21.6887   77.2954   -1.1207 H       1  UNL1        0.2106
     40 H          26.1002   79.4628   -0.9683 H       1  UNL1        0.2106
     41 O          27.4600   76.8974    1.2171 O.co2   1  UNL1       -0.5466
     42 O          28.3855   75.2490   -0.0577 O.co2   1  UNL1       -0.5466
     43 C          27.4875   76.0486    0.1599 C.2     1  UNL1        0.0799
@<TRIPOS>UNITY_ATOM_ATTR
2 1
charge -1
26 1
charge -1
41 1
charge -1
@<TRIPOS>BOND
     1     1     4    1
     2     1    24    1
     3     1     2    1
     4     1     3    2
     5    25    28    1
     6    25    24    1
     7    25    26    1
     8    25    27    2
     9     6    11    1
    10     6    12    1
    11    29    36    1
    12    29    37    1
    13     7     9    1
    14     7    13    1
    15     8    10    1
    16     8    14    1
    17     4     5    1
    18    28    36    1
    19    30    33    1
    20    30    38    1
    21    31    34    1
    22    31    39    1
    23    32    35    1
    24    32    40    1
    25    41    43   ar
    26    15    19    2
    27    42    43   ar
    28    16    22    2
    29    17    12    1
    30    17    19   ar
    31    17    20   ar
    32    18    19   ar
    33    18    22   ar
    34    18    23    1
    35     9    10    1
    36     9    11    1
    37    10    12    1
    38    11     5    1
    39    33    34    1
    40    33    35    1
    41    34    36    1
    42    35    37    1
    43    37    43    1
    44    20    21   ar
    45    21    22   ar
@<TRIPOS>MOLECULE
*****
 43 45 0 0 0
SMALL
GASTEIGER

@<TRIPOS>ATOM
      1 P          22.9471   72.3464   -3.5712 P.3     1  UNL1        0.2189
      2 O          23.3032   72.9151   -5.0439 O.co2   1  UNL1       -0.4371
      3 O          23.5141   70.9922   -3.2608 O.2     1  UNL1       -0.5170
      4 O          21.3361   72.4700   -3.4862 O.3     1  UNL1       -0.3112
      5 C          20.5649   71.2828   -3.5070 C.3     1  UNL1        0.1811
      6 O          18.6440   72.1577   -4.6568 O.3     1  UNL1       -0.3308
      7 O          17.0060   70.9368   -2.4618 O.3     1  UNL1       -0.3794
      8 O          16.7215   69.1361   -4.4898 O.3     1  UNL1       -0.3779
      9 C          18.1997   70.4506   -3.0759 C.3     1  UNL1        0.1713
     10 C          17.8974   69.9177   -4.4604 C.3     1  UNL1        0.1895
     11 C          19.0910   71.6465   -3.3824 C.3     1  UNL1        0.1764
     12 C          17.7695   71.1970   -5.2697 C.3     1  UNL1        0.2383
     13 H          16.4205   70.1906   -2.2567 H       1  UNL1        0.2105
     14 H          16.8536   68.3333   -3.9605 H       1  UNL1        0.2106
     15 O          16.0204   70.3773   -7.3301 O.2     1  UNL1       -0.2464
     16 O          19.3702   70.5491  -10.4914 O.2     1  UNL1       -0.2670
     17 N          18.1582   71.0195   -6.6402 N.ar    1  UNL1       -0.2551
     18 N          17.6907   70.4627   -8.9025 N.ar    1  UNL1       -0.2743
     19 C          17.2020   70.6046   -7.5971 C.ar    1  UNL1        0.3323
     20 C          19.4722   71.2572   -7.0249 C.ar    1  UNL1        0.0869
     21 C          19.9231   71.1177   -8.2731 C.ar    1  UNL1        0.0795
     22 C          18.9884   70.6867   -9.3331 C.ar    1  UNL1        0.2626
     23 H          17.0439   70.1727   -9.5858 H       1  UNL1        0.1734
     24 O          23.4544   73.5291   -2.5931 O.3     1  UNL1       -0.2703
     25 P          22.6589   74.7666   -1.9227 P.3     1  UNL1        0.2208
     26 O          21.2478   74.7724   -2.7159 O.co2   1  UNL1       -0.4371
     27 O          23.3993   76.0718   -1.9683 O.2     1  UNL1       -0.5170
     28 O          22.2887   74.2584   -0.4370 O.3     1  UNL1       -0.2858
     29 O          21.4251   72.0573   -0.3003 O.3     1  UNL1       -0.3226
     30 O          20.6862   73.4882    3.5043 O.3     1  UNL1       -0.3794
     31 O          20.2121   75.1778    1.1687 O.3     1  UNL1       -0.3775
     32 O          22.8750   71.6314    3.0431 O.3     1  UNL1       -0.3792
     33 C          21.3963   73.3702    2.2715 C.3     1  UNL1        0.1718
     34 C          20.4856   73.7825    1.1148 C.3     1  UNL1        0.1968
     35 C          21.8301   71.9111    2.1134 C.3     1  UNL1        0.1723
     36 C          21.1293   73.4529   -0.2327 C.3     1  UNL1        0.2706
     37 C          22.3438   71.6323    0.7039 C.3     1  UNL1        0.1830
     38 H          20.4005   74.4073    3.6263 H       1  UNL1        0.2105
     39 H          19.8037   75.3941    2.0213 H       1  UNL1        0.2106
     40 H          22.5610   71.8051    3.9443 H       1  UNL1        0.2106
     41 O          23.7051   69.8336    0.0609 O.co2   1  UNL1       -0.5466
     42 O          21.5408   69.3594    0.5997 O.co2   1  UNL1       -0.5466
     43 C          22.4513   70.1622    0.4596 C.2     1  UNL1        0.0799
@<TRIPOS>UNITY_ATOM_ATTR
2 1
charge -1
26 1
charge -1
41 1
charge -1
@<TRIPOS>BOND
     1     1     4    1
     2     1    24    1
     3     1     2    1
     4     1     3    2
     5    25    28    1
     6    25    24    1
     7    25    26    1
     8    25    27    2
     9     6    11    1
    10     6    12    1
    11    29    36    1
    12    29    37    1
    13     7     9    1
    14     7    13    1
    15     8    10    1
    16     8    14    1
    17     4     5    1
    18    28    36    1
    19    30    33    1
    20    30    38    1
    21    31    34    1
    22    31    39    1
    23    32    35    1
    24    32    40    1
    25    41    43   ar
    26    15    19    2
    27    42    43   ar
    28    16    22    2
    29    17    12    1
    30    17    19   ar
    31    17    20   ar
    32    18    19   ar
    33    18    22   ar
    34    18    23    1
    35     9    10    1
    36     9    11    1
    37    10    12    1
    38    11     5    1
    39    33    34    1
    40    33    35    1
    41    34    36    1
    42    35    37    1
    43    37    43    1
    44    20    21   ar
    45    21    22   ar
@<TRIPOS>MOLECULE
*****
 43 45 0 0 0
SMALL
GASTEIGER

@<TRIPOS>ATOM
      1 P          21.9432   71.6542   -1.3297 P.3     1  UNL1        0.2189
      2 O          22.2707   73.0958   -1.9881 O.co2   1  UNL1       -0.4371
      3 O          23.1080   70.7109   -1.2585 O.2     1  UNL1       -0.5170
      4 O          20.6623   71.1271   -2.1660 O.3     1  UNL1       -0.3112
      5 C          20.2306   71.8779   -3.2861 C.3     1  UNL1        0.1811
      6 O          18.2590   72.5320   -4.4955 O.3     1  UNL1       -0.3308
      7 O          16.7067   71.0703   -2.3871 O.3     1  UNL1       -0.3794
      8 O          16.7242   69.2921   -4.4544 O.3     1  UNL1       -0.3779
      9 C          17.9736   70.7494   -2.9619 C.3     1  UNL1        0.1713
     10 C          17.7913   70.2129   -4.3659 C.3     1  UNL1        0.1895
     11 C          18.7192   72.0530   -3.2132 C.3     1  UNL1        0.1764
     12 C          17.5346   71.4835   -5.1582 C.3     1  UNL1        0.2383
     13 H          16.2119   70.2530   -2.2175 H       1  UNL1        0.2105
     14 H          16.9360   68.5008   -3.9338 H       1  UNL1        0.2106
     15 O          16.0225   72.2643   -7.4122 O.2     1  UNL1       -0.2464
     16 O          19.3923   71.0609  -10.3174 O.2     1  UNL1       -0.2670
     17 N          17.9925   71.3851   -6.5152 N.ar    1  UNL1       -0.2551
     18 N          17.7019   71.6632   -8.8571 N.ar    1  UNL1       -0.2743
     19 C          17.1544   71.8049   -7.5751 C.ar    1  UNL1        0.3323
     20 C          19.2584   70.8795   -6.7850 C.ar    1  UNL1        0.0869
     21 C          19.7665   70.7507   -8.0122 C.ar    1  UNL1        0.0795
     22 C          18.9551   71.1654   -9.1754 C.ar    1  UNL1        0.2626
     23 H          17.1362   71.9469   -9.6113 H       1  UNL1        0.1734
     24 O          21.3055   72.0461    0.1030 O.3     1  UNL1       -0.2703
     25 P          21.8787   71.8686    1.6042 P.3     1  UNL1        0.2208
     26 O          22.7372   70.4993    1.5128 O.co2   1  UNL1       -0.4371
     27 O          20.8219   71.8658    2.6706 O.2     1  UNL1       -0.5170
     28 O          22.9844   73.0328    1.7605 O.3     1  UNL1       -0.2858
     29 O          22.2994   74.4115    3.5602 O.3     1  UNL1       -0.3226
     30 O          25.8361   76.2157    2.4179 O.3     1  UNL1       -0.3794
     31 O          23.9410   75.2666    0.4073 O.3     1  UNL1       -0.3775
     32 O          25.7414   74.5807    4.8197 O.3     1  UNL1       -0.3792
     33 C          24.9329   75.1282    2.6171 C.3     1  UNL1        0.1718
     34 C          23.6623   75.3619    1.7994 C.3     1  UNL1        0.1968
     35 C          24.6001   75.0571    4.1091 C.3     1  UNL1        0.1723
     36 C          22.5828   74.3412    2.1623 C.3     1  UNL1        0.2706
     37 C          23.4310   74.1131    4.3748 C.3     1  UNL1        0.1830
     38 H          26.0619   76.2804    1.4766 H       1  UNL1        0.2105
     39 H          24.6255   75.9113    0.1702 H       1  UNL1        0.2106
     40 H          26.4927   75.1727    4.6590 H       1  UNL1        0.2106
     41 O          23.4438   75.4016    6.3346 O.co2   1  UNL1       -0.5466
     42 O          22.0977   73.5614    6.3085 O.co2   1  UNL1       -0.5466
     43 C          22.9046   74.2975    5.7608 C.2     1  UNL1        0.0799
@<TRIPOS>UNITY_ATOM_ATTR
2 1
charge -1
26 1
charge -1
41 1
charge -1
@<TRIPOS>BOND
     1     1     4    1
     2     1    24    1
     3     1     2    1
     4     1     3    2
     5    25    28    1
     6    25    24    1
     7    25    26    1
     8    25    27    2
     9     6    11    1
    10     6    12    1
    11    29    36    1
    12    29    37    1
    13     7     9    1
    14     7    13    1
    15     8    10    1
    16     8    14    1
    17     4     5    1
    18    28    36    1
    19    30    33    1
    20    30    38    1
    21    31    34    1
    22    31    39    1
    23    32    35    1
    24    32    40    1
    25    41    43   ar
    26    15    19    2
    27    42    43   ar
    28    16    22    2
    29    17    12    1
    30    17    19   ar
    31    17    20   ar
    32    18    19   ar
    33    18    22   ar
    34    18    23    1
    35     9    10    1
    36     9    11    1
    37    10    12    1
    38    11     5    1
    39    33    34    1
    40    33    35    1
    41    34    36    1
    42    35    37    1
    43    37    43    1
    44    20    21   ar
    45    21    22   ar
@<TRIPOS>MOLECULE
*****
 43 45 0 0 0
SMALL
GASTEIGER

@<TRIPOS>ATOM
      1 P          22.6931   70.9702   -1.9210 P.3     1  UNL1        0.2189
      2 O          23.3988   70.3689   -3.2474 O.co2   1  UNL1       -0.4371
      3 O          23.2053   70.4157   -0.6241 O.2     1  UNL1       -0.5170
      4 O          21.1117   70.7671   -2.1963 O.3     1  UNL1       -0.3112
      5 C          20.6106   71.0393   -3.4921 C.3     1  UNL1        0.1811
      6 O          18.7712   72.0666   -4.6493 O.3     1  UNL1       -0.3308
      7 O          17.0256   70.9475   -2.4832 O.3     1  UNL1       -0.3794
      8 O          16.6284   69.1944   -4.5339 O.3     1  UNL1       -0.3779
      9 C          18.1861   70.3805   -3.0919 C.3     1  UNL1        0.1713
     10 C          17.8587   69.8863   -4.4850 C.3     1  UNL1        0.1895
     11 C          19.1665   71.5100   -3.3768 C.3     1  UNL1        0.1764
     12 C          17.8340   71.1800   -5.2810 C.3     1  UNL1        0.2383
     13 H          16.3844   70.2447   -2.2918 H       1  UNL1        0.2105
     14 H          16.6954   68.3785   -4.0125 H       1  UNL1        0.2106
     15 O          16.0693   70.4049   -7.3453 O.2     1  UNL1       -0.2464
     16 O          19.4327   70.4761  -10.4960 O.2     1  UNL1       -0.2670
     17 N          18.2220   70.9887   -6.6498 N.ar    1  UNL1       -0.2551
     18 N          17.7463   70.4401   -8.9124 N.ar    1  UNL1       -0.2743
     19 C          17.2576   70.5985   -7.6089 C.ar    1  UNL1        0.3323
     20 C          19.5433   71.1887   -7.0307 C.ar    1  UNL1        0.0869
     21 C          19.9942   71.0340   -8.2771 C.ar    1  UNL1        0.0795
     22 C          19.0511   70.6268   -9.3393 C.ar    1  UNL1        0.2626
     23 H          17.0939   70.1668   -9.5972 H       1  UNL1        0.1734
     24 O          22.8906   72.5649   -2.0962 O.3     1  UNL1       -0.2703
     25 P          22.2913   73.8076   -1.2534 P.3     1  UNL1        0.2208
     26 O          22.6364   73.4160    0.2789 O.co2   1  UNL1       -0.4371
     27 O          20.8374   74.0811   -1.5092 O.2     1  UNL1       -0.5170
     28 O          23.2740   75.0420   -1.5894 O.3     1  UNL1       -0.2858
     29 O          24.9481   75.0833   -3.2642 O.3     1  UNL1       -0.3226
     30 O          26.4155   77.8216   -0.5408 O.3     1  UNL1       -0.3794
     31 O          25.2249   75.3156    0.3740 O.3     1  UNL1       -0.3775
     32 O          25.1925   78.7357   -3.0146 O.3     1  UNL1       -0.3792
     33 C          25.4078   77.1050   -1.2542 C.3     1  UNL1        0.1718
     34 C          25.5529   75.6080   -0.9794 C.3     1  UNL1        0.1968
     35 C          25.5896   77.3923   -2.7462 C.3     1  UNL1        0.1723
     36 C          24.6437   74.7922   -1.8996 C.3     1  UNL1        0.2706
     37 C          24.7437   76.4535   -3.6015 C.3     1  UNL1        0.1830
     38 H          26.3198   77.6542    0.4100 H       1  UNL1        0.2105
     39 H          25.7978   75.8301    0.9634 H       1  UNL1        0.2106
     40 H          25.7233   79.3435   -2.4764 H       1  UNL1        0.2106
     41 O          26.4146   77.0351   -5.1414 O.co2   1  UNL1       -0.5466
     42 O          24.4914   76.1433   -5.9809 O.co2   1  UNL1       -0.5466
     43 C          25.1676   76.5134   -5.0330 C.2     1  UNL1        0.0799
@<TRIPOS>UNITY_ATOM_ATTR
2 1
charge -1
26 1
charge -1
41 1
charge -1
@<TRIPOS>BOND
     1     1     4    1
     2     1    24    1
     3     1     2    1
     4     1     3    2
     5    25    28    1
     6    25    24    1
     7    25    26    1
     8    25    27    2
     9     6    11    1
    10     6    12    1
    11    29    36    1
    12    29    37    1
    13     7     9    1
    14     7    13    1
    15     8    10    1
    16     8    14    1
    17     4     5    1
    18    28    36    1
    19    30    33    1
    20    30    38    1
    21    31    34    1
    22    31    39    1
    23    32    35    1
    24    32    40    1
    25    41    43   ar
    26    15    19    2
    27    42    43   ar
    28    16    22    2
    29    17    12    1
    30    17    19   ar
    31    17    20   ar
    32    18    19   ar
    33    18    22   ar
    34    18    23    1
    35     9    10    1
    36     9    11    1
    37    10    12    1
    38    11     5    1
    39    33    34    1
    40    33    35    1
    41    34    36    1
    42    35    37    1
    43    37    43    1
    44    20    21   ar
    45    21    22   ar
@<TRIPOS>MOLECULE
*****
 43 45 0 0 0
SMALL
GASTEIGER

@<TRIPOS>ATOM
      1 P          21.7458   72.9793   -4.7048 P.3     1  UNL1        0.2189
      2 O          22.2172   73.9122   -3.4693 O.co2   1  UNL1       -0.4371
      3 O          22.8056   72.7034   -5.7307 O.2     1  UNL1       -0.5170
      4 O          20.4092   73.7075   -5.2536 O.3     1  UNL1       -0.3112
      5 C          20.4594   75.0957   -5.5271 C.3     1  UNL1        0.1811
      6 O          20.3070   74.0410   -7.6817 O.3     1  UNL1       -0.3308
      7 O          20.0841   76.8086   -8.8140 O.3     1  UNL1       -0.3794
      8 O          17.4948   75.9534   -8.8167 O.3     1  UNL1       -0.3779
      9 C          19.5665   76.2891   -7.5889 C.3     1  UNL1        0.1713
     10 C          18.3730   75.3980   -7.8603 C.3     1  UNL1        0.1895
     11 C          20.5818   75.3008   -7.0316 C.3     1  UNL1        0.1764
     12 C          19.0369   74.1214   -8.3478 C.3     1  UNL1        0.2383
     13 H          19.4525   77.4427   -9.1892 H       1  UNL1        0.2105
     14 H          17.0976   76.7635   -8.4590 H       1  UNL1        0.2106
     15 O          18.9864   71.7771   -9.9220 O.2     1  UNL1       -0.2464
     16 O          16.0561   69.6876   -7.0424 O.2     1  UNL1       -0.2670
     17 N          18.2694   72.9499   -8.0327 N.ar    1  UNL1       -0.2551
     18 N          17.5262   70.7390   -8.4868 N.ar    1  UNL1       -0.2743
     19 C          18.3139   71.8252   -8.8903 C.ar    1  UNL1        0.3323
     20 C          17.4857   72.9218   -6.8856 C.ar    1  UNL1        0.0869
     21 C          16.7403   71.8791   -6.5141 C.ar    1  UNL1        0.0795
     22 C          16.7301   70.6644   -7.3554 C.ar    1  UNL1        0.2626
     23 H          17.5393   69.9452   -9.0690 H       1  UNL1        0.1734
     24 O          21.1656   71.6641   -3.9656 O.3     1  UNL1       -0.2703
     25 P          21.8125   70.7124   -2.8300 P.3     1  UNL1        0.2208
     26 O          23.3956   70.7615   -3.1641 O.co2   1  UNL1       -0.4371
     27 O          21.2330   69.3283   -2.7832 O.2     1  UNL1       -0.5170
     28 O          21.6595   71.5490   -1.4592 O.3     1  UNL1       -0.2858
     29 O          23.3088   72.8961   -0.4226 O.3     1  UNL1       -0.3226
     30 O          21.0198   71.7306    2.8132 O.3     1  UNL1       -0.3794
     31 O          21.7023   69.8154    0.7154 O.3     1  UNL1       -0.3775
     32 O          20.7794   74.4259    1.7510 O.3     1  UNL1       -0.3792
     33 C          21.2682   72.0856    1.4529 C.3     1  UNL1        0.1718
     34 C          22.2771   71.1105    0.8456 C.3     1  UNL1        0.1968
     35 C          21.8254   73.5107    1.4303 C.3     1  UNL1        0.1723
     36 C          22.7413   71.5900   -0.5304 C.3     1  UNL1        0.2706
     37 C          22.3828   73.8691    0.0558 C.3     1  UNL1        0.1830
     38 H          20.6651   70.8284    2.8525 H       1  UNL1        0.2105
     39 H          21.4052   69.5050    1.5848 H       1  UNL1        0.2106
     40 H          20.4159   74.2087    2.6236 H       1  UNL1        0.2106
     41 O          22.4215   76.1998    0.3164 O.co2   1  UNL1       -0.5466
     42 O          24.4261   75.1520    0.0287 O.co2   1  UNL1       -0.5466
     43 C          23.2087   75.1122    0.1260 C.2     1  UNL1        0.0799
@<TRIPOS>UNITY_ATOM_ATTR
2 1
charge -1
26 1
charge -1
41 1
charge -1
@<TRIPOS>BOND
     1     1     4    1
     2     1    24    1
     3     1     2    1
     4     1     3    2
     5    25    28    1
     6    25    24    1
     7    25    26    1
     8    25    27    2
     9     6    11    1
    10     6    12    1
    11    29    36    1
    12    29    37    1
    13     7     9    1
    14     7    13    1
    15     8    10    1
    16     8    14    1
    17     4     5    1
    18    28    36    1
    19    30    33    1
    20    30    38    1
    21    31    34    1
    22    31    39    1
    23    32    35    1
    24    32    40    1
    25    41    43   ar
    26    15    19    2
    27    42    43   ar
    28    16    22    2
    29    17    12    1
    30    17    19   ar
    31    17    20   ar
    32    18    19   ar
    33    18    22   ar
    34    18    23    1
    35     9    10    1
    36     9    11    1
    37    10    12    1
    38    11     5    1
    39    33    34    1
    40    33    35    1
    41    34    36    1
    42    35    37    1
    43    37    43    1
    44    20    21   ar
    45    21    22   ar
@<TRIPOS>MOLECULE
*****
 43 45 0 0 0
SMALL
GASTEIGER

@<TRIPOS>ATOM
      1 P          21.8600   74.9540   -6.9928 P.3     1  UNL1        0.2189
      2 O          21.0564   76.3577   -7.0442 O.co2   1  UNL1       -0.4371
      3 O          23.3404   75.0631   -7.2126 O.2     1  UNL1       -0.5170
      4 O          21.0622   74.0109   -8.0377 O.3     1  UNL1       -0.3112
      5 C          21.2390   72.6087   -7.9542 C.3     1  UNL1        0.1811
      6 O          19.7936   70.7011   -8.1767 O.3     1  UNL1       -0.3308
      7 O          18.2866   72.3134  -10.2067 O.3     1  UNL1       -0.3794
      8 O          16.7288   72.5512   -7.9812 O.3     1  UNL1       -0.3779
      9 C          18.9259   72.7437   -9.0048 C.3     1  UNL1        0.1713
     10 C          18.1111   72.3259   -7.7991 C.3     1  UNL1        0.1895
     11 C          20.1972   71.9243   -8.8297 C.3     1  UNL1        0.1764
     12 C          18.4528   70.8502   -7.6835 C.3     1  UNL1        0.2383
     13 H          17.4715   72.8228  -10.3400 H       1  UNL1        0.2105
     14 H          16.5629   73.5051   -8.0489 H       1  UNL1        0.2106
     15 O          16.1837   69.6568   -6.4989 O.2     1  UNL1       -0.2464
     16 O          18.3593   69.0829   -2.4762 O.2     1  UNL1       -0.2670
     17 N          18.3988   70.3798   -6.3283 N.ar    1  UNL1       -0.2551
     18 N          17.2691   69.3730   -4.4962 N.ar    1  UNL1       -0.2743
     19 C          17.2099   69.7957   -5.8307 C.ar    1  UNL1        0.3323
     20 C          19.5145   70.4973   -5.5083 C.ar    1  UNL1        0.0869
     21 C          19.5558   70.0897   -4.2383 C.ar    1  UNL1        0.0795
     22 C          18.3550   69.4692   -3.6411 C.ar    1  UNL1        0.2626
     23 H          16.4527   68.9650   -4.1268 H       1  UNL1        0.1734
     24 O          21.4356   74.3453   -5.5567 O.3     1  UNL1       -0.2703
     25 P          21.2245   75.0593   -4.1217 P.3     1  UNL1        0.2208
     26 O          19.6639   75.4884   -4.1481 O.co2   1  UNL1       -0.4371
     27 O          22.1727   76.1916   -3.8518 O.2     1  UNL1       -0.5170
     28 O          21.2976   73.8551   -3.0507 O.3     1  UNL1       -0.2858
     29 O          22.1513   73.3522   -0.8995 O.3     1  UNL1       -0.3226
     30 O          23.6613   70.2360   -3.1527 O.3     1  UNL1       -0.3794
     31 O          23.6656   72.9616   -4.2042 O.3     1  UNL1       -0.3775
     32 O          21.4079   69.7903   -1.3710 O.3     1  UNL1       -0.3792
     33 C          22.7142   71.2390   -2.7852 C.3     1  UNL1        0.1718
     34 C          23.3744   72.6162   -2.8549 C.3     1  UNL1        0.1968
     35 C          22.2443   70.9456   -1.3586 C.3     1  UNL1        0.1723
     36 C          22.4670   73.6890   -2.2509 C.3     1  UNL1        0.2706
     37 C          21.4522   72.1151   -0.7814 C.3     1  UNL1        0.1830
     38 H          23.9741   70.4019   -4.0560 H       1  UNL1        0.2105
     39 H          24.2407   72.2850   -4.5937 H       1  UNL1        0.2106
     40 H          21.9001   69.0386   -1.7364 H       1  UNL1        0.2106
     41 O          21.6488   70.7207    1.0944 O.co2   1  UNL1       -0.5466
     42 O          20.8772   72.8370    1.4479 O.co2   1  UNL1       -0.5466
     43 C          21.2841   71.9645    0.6955 C.2     1  UNL1        0.0799
@<TRIPOS>UNITY_ATOM_ATTR
2 1
charge -1
26 1
charge -1
41 1
charge -1
@<TRIPOS>BOND
     1     1     4    1
     2     1    24    1
     3     1     2    1
     4     1     3    2
     5    25    28    1
     6    25    24    1
     7    25    26    1
     8    25    27    2
     9     6    11    1
    10     6    12    1
    11    29    36    1
    12    29    37    1
    13     7     9    1
    14     7    13    1
    15     8    10    1
    16     8    14    1
    17     4     5    1
    18    28    36    1
    19    30    33    1
    20    30    38    1
    21    31    34    1
    22    31    39    1
    23    32    35    1
    24    32    40    1
    25    41    43   ar
    26    15    19    2
    27    42    43   ar
    28    16    22    2
    29    17    12    1
    30    17    19   ar
    31    17    20   ar
    32    18    19   ar
    33    18    22   ar
    34    18    23    1
    35     9    10    1
    36     9    11    1
    37    10    12    1
    38    11     5    1
    39    33    34    1
    40    33    35    1
    41    34    36    1
    42    35    37    1
    43    37    43    1
    44    20    21   ar
    45    21    22   ar
@<TRIPOS>MOLECULE
*****
 43 45 0 0 0
SMALL
GASTEIGER

@<TRIPOS>ATOM
      1 P          22.9532   74.0644   -4.3214 P.3     1  UNL1        0.2189
      2 O          24.0687   72.9274   -4.0354 O.co2   1  UNL1       -0.4371
      3 O          23.4578   75.2797   -5.0427 O.2     1  UNL1       -0.5170
      4 O          22.2915   74.3334   -2.8696 O.3     1  UNL1       -0.3112
      5 C          21.6487   75.5736   -2.6388 C.3     1  UNL1        0.1811
      6 O          21.8603   75.3108   -0.2590 O.3     1  UNL1       -0.3308
      7 O          24.0738   77.3271   -0.4203 O.3     1  UNL1       -0.3794
      8 O          25.4290   74.9667   -0.2541 O.3     1  UNL1       -0.3779
      9 C          23.7161   76.3019   -1.3474 C.3     1  UNL1        0.1713
     10 C          24.1340   74.9467   -0.8171 C.3     1  UNL1        0.1895
     11 C          22.1979   76.1860   -1.3568 C.3     1  UNL1        0.1764
     12 C          23.0531   74.6639    0.2123 C.3     1  UNL1        0.2383
     13 H          25.0395   77.4197   -0.3969 H       1  UNL1        0.2105
     14 H          26.0810   75.1502   -0.9493 H       1  UNL1        0.2106
     15 O          22.3001   73.4334    2.6403 O.2     1  UNL1       -0.2464
     16 O          22.0857   69.2697    0.6753 O.2     1  UNL1       -0.2670
     17 N          22.7943   73.2599    0.3634 N.ar    1  UNL1       -0.2551
     18 N          22.1951   71.3606    1.6595 N.ar    1  UNL1       -0.2743
     19 C          22.4223   72.7428    1.6269 C.ar    1  UNL1        0.3323
     20 C          22.9079   72.4119   -0.7315 C.ar    1  UNL1        0.0869
     21 C          22.6879   71.0965   -0.6849 C.ar    1  UNL1        0.0795
     22 C          22.2960   70.4763    0.5978 C.ar    1  UNL1        0.2626
     23 H          21.9369   70.9772    2.5288 H       1  UNL1        0.1734
     24 O          21.7964   73.2495   -5.1028 O.3     1  UNL1       -0.2703
     25 P          20.1940   73.4597   -5.1453 P.3     1  UNL1        0.2208
     26 O          20.0364   75.0379   -5.4688 O.co2   1  UNL1       -0.4371
     27 O          19.4806   73.0087   -3.9037 O.2     1  UNL1       -0.5170
     28 O          19.7197   72.7177   -6.4970 O.3     1  UNL1       -0.2858
     29 O          18.9223   70.5498   -5.9740 O.3     1  UNL1       -0.3226
     30 O          18.6062   70.5908  -10.0930 O.3     1  UNL1       -0.3794
     31 O          20.9588   71.7168   -8.7771 O.3     1  UNL1       -0.3775
     32 O          16.2293   70.8787   -8.4442 O.3     1  UNL1       -0.3792
     33 C          18.5996   71.1508   -8.7799 C.3     1  UNL1        0.1718
     34 C          19.9642   70.9356   -8.1249 C.3     1  UNL1        0.1968
     35 C          17.5051   70.4497   -7.9722 C.3     1  UNL1        0.1723
     36 C          19.9259   71.3139   -6.6436 C.3     1  UNL1        0.2706
     37 C          17.6115   70.7795   -6.4861 C.3     1  UNL1        0.1830
     38 H          19.2942   71.0211  -10.6248 H       1  UNL1        0.2105
     39 H          20.9884   71.4822   -9.7175 H       1  UNL1        0.2106
     40 H          16.1488   70.6748   -9.3891 H       1  UNL1        0.2106
     41 O          16.6887   70.2758   -4.3894 O.co2   1  UNL1       -0.5466
     42 O          16.2172   68.8480   -6.1035 O.co2   1  UNL1       -0.5466
     43 C          16.7670   69.8515   -5.6750 C.2     1  UNL1        0.0799
@<TRIPOS>UNITY_ATOM_ATTR
2 1
charge -1
26 1
charge -1
41 1
charge -1
@<TRIPOS>BOND
     1     1     4    1
     2     1    24    1
     3     1     2    1
     4     1     3    2
     5    25    28    1
     6    25    24    1
     7    25    26    1
     8    25    27    2
     9     6    11    1
    10     6    12    1
    11    29    36    1
    12    29    37    1
    13     7     9    1
    14     7    13    1
    15     8    10    1
    16     8    14    1
    17     4     5    1
    18    28    36    1
    19    30    33    1
    20    30    38    1
    21    31    34    1
    22    31    39    1
    23    32    35    1
    24    32    40    1
    25    41    43   ar
    26    15    19    2
    27    42    43   ar
    28    16    22    2
    29    17    12    1
    30    17    19   ar
    31    17    20   ar
    32    18    19   ar
    33    18    22   ar
    34    18    23    1
    35     9    10    1
    36     9    11    1
    37    10    12    1
    38    11     5    1
    39    33    34    1
    40    33    35    1
    41    34    36    1
    42    35    37    1
    43    37    43    1
    44    20    21   ar
    45    21    22   ar
@<TRIPOS>MOLECULE
*****
 43 45 0 0 0
SMALL
GASTEIGER

@<TRIPOS>ATOM
      1 P          22.0851   73.5039   -5.4051 P.3     1  UNL1        0.2189
      2 O          22.1362   75.0477   -5.8877 O.co2   1  UNL1       -0.4371
      3 O          23.4067   72.9249   -4.9930 O.2     1  UNL1       -0.5170
      4 O          21.3318   72.7424   -6.6178 O.3     1  UNL1       -0.3112
      5 C          20.6451   73.5198   -7.5815 C.3     1  UNL1        0.1811
      6 O          19.8804   71.2805   -8.0035 O.3     1  UNL1       -0.3308
      7 O          18.2956   72.4471  -10.2660 O.3     1  UNL1       -0.3794
      8 O          16.4139   72.1405   -8.3164 O.3     1  UNL1       -0.3779
      9 C          18.5861   73.0049   -8.9843 C.3     1  UNL1        0.1713
     10 C          17.7556   72.3252   -7.9163 C.3     1  UNL1        0.1895
     11 C          19.9999   72.5898   -8.6008 C.3     1  UNL1        0.1764
     12 C          18.4962   71.0120   -7.7292 C.3     1  UNL1        0.2383
     13 H          17.3970   72.6988  -10.5324 H       1  UNL1        0.2105
     14 H          15.9859   73.0052   -8.4217 H       1  UNL1        0.2106
     15 O          16.1868   69.7466   -6.7084 O.2     1  UNL1       -0.2464
     16 O          18.1460   69.0886   -2.5887 O.2     1  UNL1       -0.2670
     17 N          18.3756   70.5005   -6.3933 N.ar    1  UNL1       -0.2551
     18 N          17.1644   69.4210   -4.6572 N.ar    1  UNL1       -0.2743
     19 C          17.1717   69.8823   -5.9801 C.ar    1  UNL1        0.3323
     20 C          19.4418   70.6118   -5.5091 C.ar    1  UNL1        0.0869
     21 C          19.4199   70.1671   -4.2511 C.ar    1  UNL1        0.0795
     22 C          18.1993   69.5094   -3.7403 C.ar    1  UNL1        0.2626
     23 H          16.3363   68.9888   -4.3461 H       1  UNL1        0.1734
     24 O          20.9662   73.5252   -4.2387 O.3     1  UNL1       -0.2703
     25 P          21.0082   74.1263   -2.7385 P.3     1  UNL1        0.2208
     26 O          19.4773   74.5850   -2.4809 O.co2   1  UNL1       -0.4371
     27 O          22.0220   75.2156   -2.5397 O.2     1  UNL1       -0.5170
     28 O          21.2130   72.8393   -1.7875 O.3     1  UNL1       -0.2858
     29 O          22.9927   73.2710   -0.2856 O.3     1  UNL1       -0.3226
     30 O          21.9433   69.4096    0.7420 O.3     1  UNL1       -0.3794
     31 O          22.0782   70.2104   -2.0642 O.3     1  UNL1       -0.3775
     32 O          21.1662   71.6348    2.4437 O.3     1  UNL1       -0.3792
     33 C          21.7203   70.7404    0.2761 C.3     1  UNL1        0.1718
     34 C          22.5599   70.9915   -0.9767 C.3     1  UNL1        0.1968
     35 C          22.1266   71.7063    1.3915 C.3     1  UNL1        0.1723
     36 C          22.5260   72.4687   -1.3710 C.3     1  UNL1        0.2706
     37 C          22.1909   73.1449    0.8867 C.3     1  UNL1        0.1830
     38 H          21.6921   68.7781    0.0497 H       1  UNL1        0.2105
     39 H          22.0967   69.2719   -1.8208 H       1  UNL1        0.2106
     40 H          21.1154   70.7241    2.7738 H       1  UNL1        0.2106
     41 O          22.3543   73.8842    3.1067 O.co2   1  UNL1       -0.5466
     42 O          23.8315   74.7607    1.6071 O.co2   1  UNL1       -0.5466
     43 C          22.8951   74.0213    1.8707 C.2     1  UNL1        0.0799
@<TRIPOS>UNITY_ATOM_ATTR
2 1
charge -1
26 1
charge -1
41 1
charge -1
@<TRIPOS>BOND
     1     1     4    1
     2     1    24    1
     3     1     2    1
     4     1     3    2
     5    25    28    1
     6    25    24    1
     7    25    26    1
     8    25    27    2
     9     6    11    1
    10     6    12    1
    11    29    36    1
    12    29    37    1
    13     7     9    1
    14     7    13    1
    15     8    10    1
    16     8    14    1
    17     4     5    1
    18    28    36    1
    19    30    33    1
    20    30    38    1
    21    31    34    1
    22    31    39    1
    23    32    35    1
    24    32    40    1
    25    41    43   ar
    26    15    19    2
    27    42    43   ar
    28    16    22    2
    29    17    12    1
    30    17    19   ar
    31    17    20   ar
    32    18    19   ar
    33    18    22   ar
    34    18    23    1
    35     9    10    1
    36     9    11    1
    37    10    12    1
    38    11     5    1
    39    33    34    1
    40    33    35    1
    41    34    36    1
    42    35    37    1
    43    37    43    1
    44    20    21   ar
    45    21    22   ar
@<TRIPOS>MOLECULE
*****
 43 45 0 0 0
SMALL
GASTEIGER

@<TRIPOS>ATOM
      1 P          23.1747   74.2124   -4.2489 P.3     1  UNL1        0.2189
      2 O          23.8956   72.7665   -4.1550 O.co2   1  UNL1       -0.4371
      3 O          23.9479   75.2584   -4.9970 O.2     1  UNL1       -0.5170
      4 O          22.8167   74.5685   -2.7117 O.3     1  UNL1       -0.3112
      5 C          21.7374   75.4482   -2.4552 C.3     1  UNL1        0.1811
      6 O          21.4508   74.9591   -0.1193 O.3     1  UNL1       -0.3308
      7 O          23.2519   77.2993    0.4010 O.3     1  UNL1       -0.3794
      8 O          24.9299   75.1735    0.7195 O.3     1  UNL1       -0.3779
      9 C          23.2989   76.3402   -0.6557 C.3     1  UNL1        0.1713
     10 C          23.8193   75.0158   -0.1385 C.3     1  UNL1        0.1895
     11 C          21.8669   75.9923   -1.0383 C.3     1  UNL1        0.1764
     12 C          22.6018   74.4566    0.5777 C.3     1  UNL1        0.2383
     13 H          24.1556   77.5371    0.6626 H       1  UNL1        0.2105
     14 H          25.6787   75.5318    0.2165 H       1  UNL1        0.2106
     15 O          22.2359   72.8442    2.8674 O.2     1  UNL1       -0.2464
     16 O          22.4882   68.9609    0.3975 O.2     1  UNL1       -0.2670
     17 N          22.5677   73.0215    0.5616 N.ar    1  UNL1       -0.2551
     18 N          22.3629   70.9116    1.6352 N.ar    1  UNL1       -0.2743
     19 C          22.3786   72.3063    1.7677 C.ar    1  UNL1        0.3323
     20 C          22.7189   72.3376   -0.6386 C.ar    1  UNL1        0.0869
     21 C          22.7016   71.0078   -0.7491 C.ar    1  UNL1        0.0795
     22 C          22.5096   70.1862    0.4639 C.ar    1  UNL1        0.2626
     23 H          22.2346   70.3921    2.4616 H       1  UNL1        0.1734
     24 O          21.7317   73.8578   -4.8853 O.3     1  UNL1       -0.2703
     25 P          21.2819   73.5973   -6.4161 P.3     1  UNL1        0.2208
     26 O          22.4823   72.6843   -7.0041 O.co2   1  UNL1       -0.4371
     27 O          21.0155   74.8490   -7.2011 O.2     1  UNL1       -0.5170
     28 O          20.0230   72.5943   -6.3077 O.3     1  UNL1       -0.2858
     29 O          17.9780   73.7023   -6.7545 O.3     1  UNL1       -0.3226
     30 O          16.6704   69.9572   -5.6002 O.3     1  UNL1       -0.3794
     31 O          18.8446   71.2751   -4.1613 O.3     1  UNL1       -0.3775
     32 O          16.6481   70.7091   -8.4083 O.3     1  UNL1       -0.3792
     33 C          17.5655   70.9008   -6.1887 C.3     1  UNL1        0.1718
     34 C          18.0162   71.9077   -5.1300 C.3     1  UNL1        0.1968
     35 C          16.8230   71.6149   -7.3204 C.3     1  UNL1        0.1723
     36 C          18.7888   73.0632   -5.7678 C.3     1  UNL1        0.2706
     37 C          17.6010   72.8299   -7.8175 C.3     1  UNL1        0.1830
     38 H          17.1205   69.4911   -4.8781 H       1  UNL1        0.2105
     39 H          18.3607   70.5407   -3.7528 H       1  UNL1        0.2106
     40 H          16.1544   69.9312   -8.1051 H       1  UNL1        0.2106
     41 O          15.4319   73.3611   -8.5348 O.co2   1  UNL1       -0.5466
     42 O          17.1446   74.5924   -9.4007 O.co2   1  UNL1       -0.5466
     43 C          16.7380   73.6982   -8.6740 C.2     1  UNL1        0.0799
@<TRIPOS>UNITY_ATOM_ATTR
2 1
charge -1
26 1
charge -1
41 1
charge -1
@<TRIPOS>BOND
     1     1     4    1
     2     1    24    1
     3     1     2    1
     4     1     3    2
     5    25    28    1
     6    25    24    1
     7    25    26    1
     8    25    27    2
     9     6    11    1
    10     6    12    1
    11    29    36    1
    12    29    37    1
    13     7     9    1
    14     7    13    1
    15     8    10    1
    16     8    14    1
    17     4     5    1
    18    28    36    1
    19    30    33    1
    20    30    38    1
    21    31    34    1
    22    31    39    1
    23    32    35    1
    24    32    40    1
    25    41    43   ar
    26    15    19    2
    27    42    43   ar
    28    16    22    2
    29    17    12    1
    30    17    19   ar
    31    17    20   ar
    32    18    19   ar
    33    18    22   ar
    34    18    23    1
    35     9    10    1
    36     9    11    1
    37    10    12    1
    38    11     5    1
    39    33    34    1
    40    33    35    1
    41    34    36    1
    42    35    37    1
    43    37    43    1
    44    20    21   ar
    45    21    22   ar
@<TRIPOS>MOLECULE
*****
 43 45 0 0 0
SMALL
GASTEIGER

@<TRIPOS>ATOM
      1 P          21.6821   70.6494   -2.3419 P.3     1  UNL1        0.2189
      2 O          21.4281   69.5488   -1.1830 O.co2   1  UNL1       -0.4371
      3 O          22.8511   70.3662   -3.2392 O.2     1  UNL1       -0.5170
      4 O          21.7362   72.0533   -1.5394 O.3     1  UNL1       -0.3112
      5 C          20.8225   72.2610   -0.4781 C.3     1  UNL1        0.1811
      6 O          19.9935   74.0748    0.8638 O.3     1  UNL1       -0.3308
      7 O          20.8938   75.8812   -1.3538 O.3     1  UNL1       -0.3794
      8 O          22.8903   76.1527    0.4837 O.3     1  UNL1       -0.3779
      9 C          21.4967   74.6838   -0.8626 C.3     1  UNL1        0.1713
     10 C          22.1633   74.9420    0.4721 C.3     1  UNL1        0.1895
     11 C          20.3822   73.7192   -0.4808 C.3     1  UNL1        0.1764
     12 C          20.9754   74.9642    1.4188 C.3     1  UNL1        0.2383
     13 H          21.5864   76.5131   -1.6042 H       1  UNL1        0.2105
     14 H          23.6357   76.0881   -0.1346 H       1  UNL1        0.2106
     15 O          21.0294   72.2564    2.2197 O.2     1  UNL1       -0.2464
     16 O          22.3053   73.3608    6.5088 O.2     1  UNL1       -0.2670
     17 N          21.3182   74.5160    2.7388 N.ar    1  UNL1       -0.2551
     18 N          21.6638   72.8091    4.3555 N.ar    1  UNL1       -0.2743
     19 C          21.3147   73.1330    3.0378 C.ar    1  UNL1        0.3323
     20 C          21.6546   75.4409    3.7199 C.ar    1  UNL1        0.0869
     21 C          21.9853   75.1170    4.9714 C.ar    1  UNL1        0.0795
     22 C          22.0052   73.6932    5.3662 C.ar    1  UNL1        0.2626
     23 H          21.6664   71.8524    4.5879 H       1  UNL1        0.1734
     24 O          20.2546   70.7173   -3.0971 O.3     1  UNL1       -0.2703
     25 P          19.2378   69.5457   -3.5524 P.3     1  UNL1        0.2208
     26 O          17.9683   69.7555   -2.5702 O.co2   1  UNL1       -0.4371
     27 O          19.8297   68.1666   -3.5119 O.2     1  UNL1       -0.5170
     28 O          18.7087   70.0048   -5.0055 O.3     1  UNL1       -0.2858
     29 O          19.4709   71.2134   -6.8943 O.3     1  UNL1       -0.3226
     30 O          15.7714   72.9299   -6.2347 O.3     1  UNL1       -0.3794
     31 O          17.5403   72.3165   -3.9921 O.3     1  UNL1       -0.3775
     32 O          16.1381   71.0483   -8.4201 O.3     1  UNL1       -0.3792
     33 C          16.7385   71.8798   -6.2399 C.3     1  UNL1        0.1718
     34 C          17.9260   72.2734   -5.3611 C.3     1  UNL1        0.1968
     35 C          17.1941   71.6638   -7.6848 C.3     1  UNL1        0.1723
     36 C          19.0788   71.2816   -5.5228 C.3     1  UNL1        0.2706
     37 C          18.4245   70.7637   -7.7522 C.3     1  UNL1        0.1830
     38 H          15.4672   73.0851   -5.3265 H       1  UNL1        0.2105
     39 H          16.8090   72.9437   -3.8823 H       1  UNL1        0.2106
     40 H          15.3489   71.6111   -8.3849 H       1  UNL1        0.2106
     41 O          18.4394   69.9629   -9.9568 O.co2   1  UNL1       -0.5466
     42 O          19.9869   71.5476   -9.4153 O.co2   1  UNL1       -0.5466
     43 C          19.0521   70.8238   -9.1068 C.2     1  UNL1        0.0799
@<TRIPOS>UNITY_ATOM_ATTR
2 1
charge -1
26 1
charge -1
41 1
charge -1
@<TRIPOS>BOND
     1     1     4    1
     2     1    24    1
     3     1     2    1
     4     1     3    2
     5    25    28    1
     6    25    24    1
     7    25    26    1
     8    25    27    2
     9     6    11    1
    10     6    12    1
    11    29    36    1
    12    29    37    1
    13     7     9    1
    14     7    13    1
    15     8    10    1
    16     8    14    1
    17     4     5    1
    18    28    36    1
    19    30    33    1
    20    30    38    1
    21    31    34    1
    22    31    39    1
    23    32    35    1
    24    32    40    1
    25    41    43   ar
    26    15    19    2
    27    42    43   ar
    28    16    22    2
    29    17    12    1
    30    17    19   ar
    31    17    20   ar
    32    18    19   ar
    33    18    22   ar
    34    18    23    1
    35     9    10    1
    36     9    11    1
    37    10    12    1
    38    11     5    1
    39    33    34    1
    40    33    35    1
    41    34    36    1
    42    35    37    1
    43    37    43    1
    44    20    21   ar
    45    21    22   ar
@<TRIPOS>MOLECULE
*****
 43 45 0 0 0
SMALL
GASTEIGER

@<TRIPOS>ATOM
      1 P          23.0665   72.5193   -3.4849 P.3     1  UNL1        0.2189
      2 O          23.2667   70.9586   -3.1067 O.co2   1  UNL1       -0.4371
      3 O          24.2619   73.1785   -4.1081 O.2     1  UNL1       -0.5170
      4 O          22.5328   73.1867   -2.1110 O.3     1  UNL1       -0.3112
      5 C          22.3546   72.3543   -0.9796 C.3     1  UNL1        0.1811
      6 O          20.9604   72.4505    0.9761 O.3     1  UNL1       -0.3308
      7 O          18.8916   73.7144   -0.7887 O.3     1  UNL1       -0.3794
      8 O          19.9463   75.8595    0.5237 O.3     1  UNL1       -0.3779
      9 C          20.3116   73.8613   -0.8127 C.3     1  UNL1        0.1713
     10 C          20.7687   74.7257    0.3432 C.3     1  UNL1        0.1895
     11 C          20.9293   72.5134   -0.4663 C.3     1  UNL1        0.1764
     12 C          20.6932   73.7567    1.5108 C.3     1  UNL1        0.2383
     13 H          18.4747   74.5630   -1.0070 H       1  UNL1        0.2105
     14 H          20.0297   76.4452   -0.2457 H       1  UNL1        0.2106
     15 O          20.3045   75.6353    3.5835 O.2     1  UNL1       -0.2464
     16 O          24.4722   74.8030    5.3672 O.2     1  UNL1       -0.2670
     17 N          21.6603   74.0506    2.5303 N.ar    1  UNL1       -0.2551
     18 N          22.3811   75.2197    4.4693 N.ar    1  UNL1       -0.2743
     19 C          21.3661   75.0119    3.5261 C.ar    1  UNL1        0.3323
     20 C          22.8825   73.3895    2.5382 C.ar    1  UNL1        0.0869
     21 C          23.8400   73.5983    3.4440 C.ar    1  UNL1        0.0795
     22 C          23.6128   74.5872    4.5181 C.ar    1  UNL1        0.2626
     23 H          22.2001   75.8859    5.1713 H       1  UNL1        0.1734
     24 O          21.7458   72.5004   -4.4167 O.3     1  UNL1       -0.2703
     25 P          21.4111   73.2689   -5.7991 P.3     1  UNL1        0.2208
     26 O          22.5887   72.7728   -6.7927 O.co2   1  UNL1       -0.4371
     27 O          21.3033   74.7603   -5.6640 O.2     1  UNL1       -0.5170
     28 O          20.0788   72.5490   -6.3553 O.3     1  UNL1       -0.2858
     29 O          19.0705   70.4419   -5.9648 O.3     1  UNL1       -0.3226
     30 O          18.4155   70.9502  -10.0121 O.3     1  UNL1       -0.3794
     31 O          20.9902   71.6598   -8.8281 O.3     1  UNL1       -0.3775
     32 O          16.2389   71.3295   -8.1227 O.3     1  UNL1       -0.3792
     33 C          18.5879   71.3665   -8.6575 C.3     1  UNL1        0.1718
     34 C          19.9665   70.9315   -8.1599 C.3     1  UNL1        0.1968
     35 C          17.4882   70.7123   -7.8181 C.3     1  UNL1        0.1723
     36 C          20.0996   71.1541   -6.6528 C.3     1  UNL1        0.2706
     37 C          17.7590   70.8702   -6.3247 C.3     1  UNL1        0.1830
     38 H          19.1034   71.3537  -10.5646 H       1  UNL1        0.2105
     39 H          20.9116   71.5233   -9.7849 H       1  UNL1        0.2106
     40 H          16.0547   71.2361   -9.0704 H       1  UNL1        0.2106
     41 O          16.2303   69.0913   -6.3380 O.co2   1  UNL1       -0.5466
     42 O          16.7574   69.9945   -4.3118 O.co2   1  UNL1       -0.5466
     43 C          16.8793   69.9633   -5.5272 C.2     1  UNL1        0.0799
@<TRIPOS>UNITY_ATOM_ATTR
2 1
charge -1
26 1
charge -1
41 1
charge -1
@<TRIPOS>BOND
     1     1     4    1
     2     1    24    1
     3     1     2    1
     4     1     3    2
     5    25    28    1
     6    25    24    1
     7    25    26    1
     8    25    27    2
     9     6    11    1
    10     6    12    1
    11    29    36    1
    12    29    37    1
    13     7     9    1
    14     7    13    1
    15     8    10    1
    16     8    14    1
    17     4     5    1
    18    28    36    1
    19    30    33    1
    20    30    38    1
    21    31    34    1
    22    31    39    1
    23    32    35    1
    24    32    40    1
    25    41    43   ar
    26    15    19    2
    27    42    43   ar
    28    16    22    2
    29    17    12    1
    30    17    19   ar
    31    17    20   ar
    32    18    19   ar
    33    18    22   ar
    34    18    23    1
    35     9    10    1
    36     9    11    1
    37    10    12    1
    38    11     5    1
    39    33    34    1
    40    33    35    1
    41    34    36    1
    42    35    37    1
    43    37    43    1
    44    20    21   ar
    45    21    22   ar
@<TRIPOS>MOLECULE
*****
 43 45 0 0 0
SMALL
GASTEIGER

@<TRIPOS>ATOM
      1 P          23.1463   74.4260   -4.1259 P.3     1  UNL1        0.2189
      2 O          24.2536   73.2712   -3.8825 O.co2   1  UNL1       -0.4371
      3 O          23.4300   75.3428   -5.2795 O.2     1  UNL1       -0.5170
      4 O          23.0041   75.1389   -2.6804 O.3     1  UNL1       -0.3112
      5 C          21.7311   75.6146   -2.2834 C.3     1  UNL1        0.1811
      6 O          21.3778   75.0034    0.0142 O.3     1  UNL1       -0.3308
      7 O          23.1253   77.3386    0.7102 O.3     1  UNL1       -0.3794
      8 O          24.8248   75.2227    0.9756 O.3     1  UNL1       -0.3779
      9 C          23.2206   76.4353   -0.3913 C.3     1  UNL1        0.1713
     10 C          23.7446   75.0935    0.0750 C.3     1  UNL1        0.1895
     11 C          21.8070   76.0877   -0.8375 C.3     1  UNL1        0.1764
     12 C          22.5137   74.4819    0.7221 C.3     1  UNL1        0.2383
     13 H          24.0164   77.5752    1.0129 H       1  UNL1        0.2105
     14 H          25.5836   75.6163    0.5160 H       1  UNL1        0.2106
     15 O          21.9857   72.7525    2.8917 O.2     1  UNL1       -0.2464
     16 O          22.4962   69.0014    0.2626 O.2     1  UNL1       -0.2670
     17 N          22.5022   73.0492    0.6325 N.ar    1  UNL1       -0.2551
     18 N          22.2415   70.8859    1.5804 N.ar    1  UNL1       -0.2743
     19 C          22.2257   72.2722    1.7823 C.ar    1  UNL1        0.3323
     20 C          22.7609   72.4282   -0.5833 C.ar    1  UNL1        0.0869
     21 C          22.7724   71.1055   -0.7603 C.ar    1  UNL1        0.0795
     22 C          22.4941   70.2219    0.3909 C.ar    1  UNL1        0.2626
     23 H          22.0538   70.3241    2.3669 H       1  UNL1        0.1734
     24 O          21.7702   73.5878   -4.2546 O.3     1  UNL1       -0.2703
     25 P          21.0567   72.9091   -5.5369 P.3     1  UNL1        0.2208
     26 O          22.3055   72.5075   -6.4854 O.co2   1  UNL1       -0.4371
     27 O          20.0295   73.7788   -6.2020 O.2     1  UNL1       -0.5170
     28 O          20.4898   71.5005   -4.9919 O.3     1  UNL1       -0.2858
     29 O          18.6996   71.9720   -3.5148 O.3     1  UNL1       -0.3226
     30 O          18.8056   67.8432   -3.4163 O.3     1  UNL1       -0.3794
     31 O          21.2834   69.3899   -3.3636 O.3     1  UNL1       -0.3775
     32 O          16.7317   69.2141   -4.9231 O.3     1  UNL1       -0.3792
     33 C          18.9560   69.1371   -4.0004 C.3     1  UNL1        0.1718
     34 C          19.9821   69.9425   -3.2029 C.3     1  UNL1        0.1968
     35 C          17.5928   69.8318   -3.9685 C.3     1  UNL1        0.1723
     36 C          20.0020   71.4033   -3.6550 C.3     1  UNL1        0.2706
     37 C          17.7149   71.3142   -4.3090 C.3     1  UNL1        0.1830
     38 H          19.6595   67.3828   -3.4255 H       1  UNL1        0.2105
     39 H          21.2780   68.4629   -3.0789 H       1  UNL1        0.2106
     40 H          16.6456   68.2700   -4.7178 H       1  UNL1        0.2106
     41 O          15.6891   71.2999   -3.1270 O.co2   1  UNL1       -0.5466
     42 O          16.1605   73.1588   -4.3604 O.co2   1  UNL1       -0.5466
     43 C          16.4591   72.0441   -3.9589 C.2     1  UNL1        0.0799
@<TRIPOS>UNITY_ATOM_ATTR
2 1
charge -1
26 1
charge -1
41 1
charge -1
@<TRIPOS>BOND
     1     1     4    1
     2     1    24    1
     3     1     2    1
     4     1     3    2
     5    25    28    1
     6    25    24    1
     7    25    26    1
     8    25    27    2
     9     6    11    1
    10     6    12    1
    11    29    36    1
    12    29    37    1
    13     7     9    1
    14     7    13    1
    15     8    10    1
    16     8    14    1
    17     4     5    1
    18    28    36    1
    19    30    33    1
    20    30    38    1
    21    31    34    1
    22    31    39    1
    23    32    35    1
    24    32    40    1
    25    41    43   ar
    26    15    19    2
    27    42    43   ar
    28    16    22    2
    29    17    12    1
    30    17    19   ar
    31    17    20   ar
    32    18    19   ar
    33    18    22   ar
    34    18    23    1
    35     9    10    1
    36     9    11    1
    37    10    12    1
    38    11     5    1
    39    33    34    1
    40    33    35    1
    41    34    36    1
    42    35    37    1
    43    37    43    1
    44    20    21   ar
    45    21    22   ar
@<TRIPOS>MOLECULE
*****
 43 45 0 0 0
SMALL
GASTEIGER

@<TRIPOS>ATOM
      1 P          18.9880   70.2432   -3.3068 P.3     1  UNL1        0.2189
      2 O          18.5510   68.9000   -2.5171 O.co2   1  UNL1       -0.4371
      3 O          18.5567   71.5269   -2.6604 O.2     1  UNL1       -0.5170
      4 O          18.4509   70.0002   -4.8136 O.3     1  UNL1       -0.3112
      5 C          19.0942   70.6767   -5.8781 C.3     1  UNL1        0.1811
      6 O          18.6749   72.9023   -6.6833 O.3     1  UNL1       -0.3308
      7 O          16.4767   71.6937   -8.3260 O.3     1  UNL1       -0.3794
      8 O          18.4832   71.9981  -10.1473 O.3     1  UNL1       -0.3779
      9 C          17.7538   71.1526   -7.9874 C.3     1  UNL1        0.1713
     10 C          18.8413   71.8334   -8.7912 C.3     1  UNL1        0.1895
     11 C          18.0871   71.5884   -6.5671 C.3     1  UNL1        0.1764
     12 C          18.9913   73.1572   -8.0611 C.3     1  UNL1        0.2383
     13 H          16.2421   71.4286   -9.2295 H       1  UNL1        0.2105
     14 H          18.4003   71.1273  -10.5679 H       1  UNL1        0.2106
     15 O          21.3315   71.5770   -8.0063 O.2     1  UNL1       -0.2464
     16 O          24.0565   75.2746   -8.3887 O.2     1  UNL1       -0.2670
     17 N          20.3253   73.6810   -8.1446 N.ar    1  UNL1       -0.2551
     18 N          22.6865   73.4202   -8.1958 N.ar    1  UNL1       -0.2743
     19 C          21.4327   72.8011   -8.1079 C.ar    1  UNL1        0.3323
     20 C          20.5263   75.0509   -8.2632 C.ar    1  UNL1        0.0869
     21 C          21.7275   75.6262   -8.3460 C.ar    1  UNL1        0.0795
     22 C          22.9368   74.7778   -8.3141 C.ar    1  UNL1        0.2626
     23 H          23.4728   72.8282   -8.1702 H       1  UNL1        0.1734
     24 O          20.5880   70.0704   -3.4591 O.3     1  UNL1       -0.2703
     25 P          21.8078   71.0221   -2.9900 P.3     1  UNL1        0.2208
     26 O          21.4491   72.4459   -3.6715 O.co2   1  UNL1       -0.4371
     27 O          23.1695   70.4950   -3.3390 O.2     1  UNL1       -0.5170
     28 O          21.5634   71.2529   -1.4122 O.3     1  UNL1       -0.2858
     29 O          23.1621   72.7812   -0.5652 O.3     1  UNL1       -0.3226
     30 O          21.0970   71.7415    2.8585 O.3     1  UNL1       -0.3794
     31 O          21.8150   69.7085    0.8873 O.3     1  UNL1       -0.3775
     32 O          20.6320   74.3207    1.6006 O.3     1  UNL1       -0.3792
     33 C          21.2626   71.9994    1.4642 C.3     1  UNL1        0.1718
     34 C          22.3072   71.0435    0.8876 C.3     1  UNL1        0.1968
     35 C          21.7219   73.4502    1.3029 C.3     1  UNL1        0.1723
     36 C          22.6790   71.4376   -0.5426 C.3     1  UNL1        0.2706
     37 C          22.1947   73.7298   -0.1208 C.3     1  UNL1        0.1830
     38 H          20.8053   70.8250    2.9856 H       1  UNL1        0.2105
     39 H          21.5769   69.4520    1.7917 H       1  UNL1        0.2106
     40 H          20.3216   74.1529    2.5041 H       1  UNL1        0.2106
     41 O          23.0091   75.5998    1.0374 O.co2   1  UNL1       -0.5466
     42 O          23.4209   75.5035   -1.2032 O.co2   1  UNL1       -0.5466
     43 C          22.9381   75.0240   -0.1884 C.2     1  UNL1        0.0799
@<TRIPOS>UNITY_ATOM_ATTR
2 1
charge -1
26 1
charge -1
41 1
charge -1
@<TRIPOS>BOND
     1     1     4    1
     2     1    24    1
     3     1     2    1
     4     1     3    2
     5    25    28    1
     6    25    24    1
     7    25    26    1
     8    25    27    2
     9     6    11    1
    10     6    12    1
    11    29    36    1
    12    29    37    1
    13     7     9    1
    14     7    13    1
    15     8    10    1
    16     8    14    1
    17     4     5    1
    18    28    36    1
    19    30    33    1
    20    30    38    1
    21    31    34    1
    22    31    39    1
    23    32    35    1
    24    32    40    1
    25    41    43   ar
    26    15    19    2
    27    42    43   ar
    28    16    22    2
    29    17    12    1
    30    17    19   ar
    31    17    20   ar
    32    18    19   ar
    33    18    22   ar
    34    18    23    1
    35     9    10    1
    36     9    11    1
    37    10    12    1
    38    11     5    1
    39    33    34    1
    40    33    35    1
    41    34    36    1
    42    35    37    1
    43    37    43    1
    44    20    21   ar
    45    21    22   ar
@<TRIPOS>MOLECULE
*****
 43 45 0 0 0
SMALL
GASTEIGER

@<TRIPOS>ATOM
      1 P          22.5146   73.0040   -4.6309 P.3     1  UNL1        0.2189
      2 O          21.6026   74.3115   -4.3526 O.co2   1  UNL1       -0.4371
      3 O          23.8974   73.0609   -4.0508 O.2     1  UNL1       -0.5170
      4 O          22.4331   72.8075   -6.2348 O.3     1  UNL1       -0.3112
      5 C          21.1974   73.0465   -6.8833 C.3     1  UNL1        0.1811
      6 O          19.1335   71.8172   -6.8006 O.3     1  UNL1       -0.3308
      7 O          20.3974   69.9262   -8.7546 O.3     1  UNL1       -0.3794
      8 O          18.7950   71.4494  -10.3509 O.3     1  UNL1       -0.3779
      9 C          20.5322   71.3439   -8.6528 C.3     1  UNL1        0.1713
     10 C          19.2783   72.0271   -9.1562 C.3     1  UNL1        0.1895
     11 C          20.5241   71.7117   -7.1753 C.3     1  UNL1        0.1764
     12 C          18.3255   71.8379   -7.9881 C.3     1  UNL1        0.2383
     13 H          20.4000   69.6671   -9.6898 H       1  UNL1        0.2105
     14 H          19.4367   71.5970  -11.0639 H       1  UNL1        0.2106
     15 O          15.8718   71.6470   -6.6028 O.2     1  UNL1       -0.2464
     16 O          14.7324   75.9881   -7.6520 O.2     1  UNL1       -0.2670
     17 N          17.3688   72.9031   -7.8833 N.ar    1  UNL1       -0.2551
     18 N          15.3062   73.8090   -7.1275 N.ar    1  UNL1       -0.2743
     19 C          16.1665   72.7037   -7.1644 C.ar    1  UNL1        0.3323
     20 C          17.6259   74.1282   -8.4866 C.ar    1  UNL1        0.0869
     21 C          16.7962   75.1724   -8.4427 C.ar    1  UNL1        0.0795
     22 C          15.5179   75.0470   -7.7123 C.ar    1  UNL1        0.2626
     23 H          14.4618   73.6936   -6.6345 H       1  UNL1        0.1734
     24 O          21.5983   71.7963   -4.0698 O.3     1  UNL1       -0.2703
     25 P          21.8964   70.6702   -2.9489 P.3     1  UNL1        0.2208
     26 O          23.4979   70.4587   -3.0538 O.co2   1  UNL1       -0.4371
     27 O          21.0945   69.4115   -3.1120 O.2     1  UNL1       -0.5170
     28 O          21.6770   71.4261   -1.5407 O.3     1  UNL1       -0.2858
     29 O          23.2806   72.8684   -0.5623 O.3     1  UNL1       -0.3226
     30 O          21.0548   71.7311    2.7272 O.3     1  UNL1       -0.3794
     31 O          21.7965   69.7713    0.6916 O.3     1  UNL1       -0.3775
     32 O          20.7082   74.3774    1.5749 O.3     1  UNL1       -0.3792
     33 C          21.2822   72.0479    1.3539 C.3     1  UNL1        0.1718
     34 C          22.3234   71.0905    0.7734 C.3     1  UNL1        0.1968
     35 C          21.7857   73.4911    1.2786 C.3     1  UNL1        0.1723
     36 C          22.7617   71.5392   -0.6213 C.3     1  UNL1        0.2706
     37 C          22.3216   73.8223   -0.1112 C.3     1  UNL1        0.1830
     38 H          20.7343   70.8183    2.7998 H       1  UNL1        0.2105
     39 H          21.5162   69.4803    1.5731 H       1  UNL1        0.2106
     40 H          20.3579   74.1770    2.4570 H       1  UNL1        0.2106
     41 O          24.2639   74.9352    0.5892 O.co2   1  UNL1       -0.5466
     42 O          22.7478   76.1441   -0.6104 O.co2   1  UNL1       -0.5466
     43 C          23.1010   75.0969   -0.0893 C.2     1  UNL1        0.0799
@<TRIPOS>UNITY_ATOM_ATTR
2 1
charge -1
26 1
charge -1
41 1
charge -1
@<TRIPOS>BOND
     1     1     4    1
     2     1    24    1
     3     1     2    1
     4     1     3    2
     5    25    28    1
     6    25    24    1
     7    25    26    1
     8    25    27    2
     9     6    11    1
    10     6    12    1
    11    29    36    1
    12    29    37    1
    13     7     9    1
    14     7    13    1
    15     8    10    1
    16     8    14    1
    17     4     5    1
    18    28    36    1
    19    30    33    1
    20    30    38    1
    21    31    34    1
    22    31    39    1
    23    32    35    1
    24    32    40    1
    25    41    43   ar
    26    15    19    2
    27    42    43   ar
    28    16    22    2
    29    17    12    1
    30    17    19   ar
    31    17    20   ar
    32    18    19   ar
    33    18    22   ar
    34    18    23    1
    35     9    10    1
    36     9    11    1
    37    10    12    1
    38    11     5    1
    39    33    34    1
    40    33    35    1
    41    34    36    1
    42    35    37    1
    43    37    43    1
    44    20    21   ar
    45    21    22   ar
@<TRIPOS>MOLECULE
*****
 43 45 0 0 0
SMALL
GASTEIGER

@<TRIPOS>ATOM
      1 P          17.0140   70.0139   -5.4639 P.3     1  UNL1        0.2189
      2 O          18.6272   70.0501   -5.5870 O.co2   1  UNL1       -0.4371
      3 O          16.3747   68.7253   -5.8913 O.2     1  UNL1       -0.5170
      4 O          16.5335   71.3357   -6.2638 O.3     1  UNL1       -0.3112
      5 C          17.5129   72.1290   -6.9088 C.3     1  UNL1        0.1811
      6 O          15.7040   72.5496   -8.4348 O.3     1  UNL1       -0.3308
      7 O          17.8112   73.2778  -10.4400 O.3     1  UNL1       -0.3794
      8 O          16.9356   75.7144   -9.5841 O.3     1  UNL1       -0.3779
      9 C          17.7877   73.5054   -9.0307 C.3     1  UNL1        0.1713
     10 C          16.8218   74.6222   -8.6961 C.3     1  UNL1        0.1895
     11 C          17.1254   72.3032   -8.3717 C.3     1  UNL1        0.1764
     12 C          15.4788   73.9199   -8.8020 C.3     1  UNL1        0.2383
     13 H          18.2299   74.0329  -10.8829 H       1  UNL1        0.2105
     14 H          17.8073   76.1278   -9.4782 H       1  UNL1        0.2106
     15 O          12.9159   74.7814   -9.6179 O.2     1  UNL1       -0.2464
     16 O          11.7853   76.0668   -5.3384 O.2     1  UNL1       -0.2670
     17 N          14.4948   74.4836   -7.9217 N.ar    1  UNL1       -0.2551
     18 N          12.3556   75.4217   -7.4859 N.ar    1  UNL1       -0.2743
     19 C          13.2378   74.8847   -8.4327 C.ar    1  UNL1        0.3323
     20 C          14.7779   74.6326   -6.5695 C.ar    1  UNL1        0.0869
     21 C          13.9268   75.1461   -5.6792 C.ar    1  UNL1        0.0795
     22 C          12.5921   75.5906   -6.1312 C.ar    1  UNL1        0.2626
     23 H          11.4749   75.7100   -7.8183 H       1  UNL1        0.1734
     24 O          16.7589   70.4118   -3.9181 O.3     1  UNL1       -0.2703
     25 P          17.2714   71.6749   -3.0488 P.3     1  UNL1        0.2208
     26 O          16.5832   71.4329   -1.6037 O.co2   1  UNL1       -0.4371
     27 O          16.9657   73.0101   -3.6635 O.2     1  UNL1       -0.5170
     28 O          18.8410   71.3938   -2.8045 O.3     1  UNL1       -0.2858
     29 O          20.3781   71.5767   -1.0120 O.3     1  UNL1       -0.3226
     30 O          22.5444   73.1787   -4.1438 O.3     1  UNL1       -0.3794
     31 O          19.7171   73.8343   -3.8108 O.3     1  UNL1       -0.3775
     32 O          23.1317   70.4984   -3.1838 O.3     1  UNL1       -0.3792
     33 C          21.5884   72.3163   -3.5273 C.3     1  UNL1        0.1718
     34 C          20.5089   73.1553   -2.8429 C.3     1  UNL1        0.1968
     35 C          22.3235   71.4536   -2.4991 C.3     1  UNL1        0.1723
     36 C          19.5989   72.2786   -1.9814 C.3     1  UNL1        0.2706
     37 C          21.3452   70.7073   -1.5966 C.3     1  UNL1        0.1830
     38 H          22.1001   73.7368   -4.8013 H       1  UNL1        0.2105
     39 H          20.2882   74.3923   -4.3612 H       1  UNL1        0.2106
     40 H          23.7588   70.9604   -3.7618 H       1  UNL1        0.2106
     41 O          23.3809   70.3806   -0.4783 O.co2   1  UNL1       -0.5466
     42 O          21.5052   69.5408    0.5093 O.co2   1  UNL1       -0.5466
     43 C          22.0484   70.1393   -0.4070 C.2     1  UNL1        0.0799
@<TRIPOS>UNITY_ATOM_ATTR
2 1
charge -1
26 1
charge -1
41 1
charge -1
@<TRIPOS>BOND
     1     1     4    1
     2     1    24    1
     3     1     2    1
     4     1     3    2
     5    25    28    1
     6    25    24    1
     7    25    26    1
     8    25    27    2
     9     6    11    1
    10     6    12    1
    11    29    36    1
    12    29    37    1
    13     7     9    1
    14     7    13    1
    15     8    10    1
    16     8    14    1
    17     4     5    1
    18    28    36    1
    19    30    33    1
    20    30    38    1
    21    31    34    1
    22    31    39    1
    23    32    35    1
    24    32    40    1
    25    41    43   ar
    26    15    19    2
    27    42    43   ar
    28    16    22    2
    29    17    12    1
    30    17    19   ar
    31    17    20   ar
    32    18    19   ar
    33    18    22   ar
    34    18    23    1
    35     9    10    1
    36     9    11    1
    37    10    12    1
    38    11     5    1
    39    33    34    1
    40    33    35    1
    41    34    36    1
    42    35    37    1
    43    37    43    1
    44    20    21   ar
    45    21    22   ar
