@<TRIPOS>MOLECULE
*****
 43 45 0 0 0
SMALL
GASTEIGER

@<TRIPOS>ATOM
      1 P          22.5128   71.4853   -2.4838 P.3     1  UNL1        0.2189
      2 O          21.4751   72.7228   -2.5870 O.co2   1  UNL1       -0.4371
      3 O          23.6398   71.5193   -3.4740 O.2     1  UNL1       -0.5170
      4 O          21.5637   70.1764   -2.5441 O.3     1  UNL1       -0.3112
      5 C          20.7317   69.9960   -3.6754 C.3     1  UNL1        0.1811
      6 O          19.1118   71.4923   -4.6319 O.3     1  UNL1       -0.3308
      7 O          17.2266   70.5037   -2.5200 O.3     1  UNL1       -0.3794
      8 O          16.4357   69.1083   -4.7253 O.3     1  UNL1       -0.3779
      9 C          18.2340   69.7905   -3.2377 C.3     1  UNL1        0.1713
     10 C          17.7812   69.5322   -4.6591 C.3     1  UNL1        0.1895
     11 C          19.4157   70.7278   -3.4450 C.3     1  UNL1        0.1764
     12 C          18.0003   70.8868   -5.3110 C.3     1  UNL1        0.2383
     13 H          16.4611   69.9250   -2.3754 H       1  UNL1        0.2105
     14 H          16.3483   68.2416   -4.2973 H       1  UNL1        0.2106
     15 O          16.0751   70.5437   -7.3487 O.2     1  UNL1       -0.2464
     16 O          19.3019   70.4842  -10.6393 O.2     1  UNL1       -0.2670
     17 N          18.3098   70.7787   -6.7086 N.ar    1  UNL1       -0.2551
     18 N          17.6842   70.5134   -8.9856 N.ar    1  UNL1       -0.2743
     19 C          17.2682   70.6080   -7.6510 C.ar    1  UNL1        0.3323
     20 C          19.6312   70.8436   -7.1335 C.ar    1  UNL1        0.0869
     21 C          20.0122   70.7519   -8.4091 C.ar    1  UNL1        0.0795
     22 C          18.9858   70.5716   -9.4567 C.ar    1  UNL1        0.2626
     23 H          16.9770   70.3922   -9.6598 H       1  UNL1        0.1734
     24 O          22.9754   71.5277   -0.9355 O.3     1  UNL1       -0.2703
     25 P          22.4531   70.7001    0.3513 P.3     1  UNL1        0.2208
     26 O          23.5405   69.5091    0.4913 O.co2   1  UNL1       -0.4371
     27 O          21.0312   70.2301    0.2456 O.2     1  UNL1       -0.5170
     28 O          22.7464   71.6688    1.6075 O.3     1  UNL1       -0.2858
     29 O          22.0325   72.5347    3.6931 O.3     1  UNL1       -0.3226
     30 O          21.4997   75.7894    1.2049 O.3     1  UNL1       -0.3794
     31 O          20.7459   73.1094    0.3195 O.3     1  UNL1       -0.3775
     32 O          23.7567   75.7058    3.0351 O.3     1  UNL1       -0.3792
     33 C          22.1195   74.5886    1.6653 C.3     1  UNL1        0.1718
     34 C          21.0996   73.4497    1.6551 C.3     1  UNL1        0.1968
     35 C          22.6287   74.8345    3.0873 C.3     1  UNL1        0.1723
     36 C          21.6576   72.2093    2.3541 C.3     1  UNL1        0.2706
     37 C          23.0495   73.5317    3.7614 C.3     1  UNL1        0.1830
     38 H          21.1682   75.6570    0.3027 H       1  UNL1        0.2105
     39 H          20.3913   73.8920   -0.1300 H       1  UNL1        0.2106
     40 H          23.5024   76.5388    2.6081 H       1  UNL1        0.2106
     41 O          24.3389   74.4643    5.4845 O.co2   1  UNL1       -0.5466
     42 O          22.4799   73.2928    6.0937 O.co2   1  UNL1       -0.5466
     43 C          23.2281   73.7287    5.2316 C.2     1  UNL1        0.0799
@<TRIPOS>UNITY_ATOM_ATTR
2 1
charge -1
26 1
charge -1
41 1
charge -1
@<TRIPOS>BOND
     1     1     4    1
     2     1    24    1
     3     1     2    1
     4     1     3    2
     5    25    28    1
     6    25    24    1
     7    25    26    1
     8    25    27    2
     9     6    11    1
    10     6    12    1
    11    29    36    1
    12    29    37    1
    13     7     9    1
    14     7    13    1
    15     8    10    1
    16     8    14    1
    17     4     5    1
    18    28    36    1
    19    30    33    1
    20    30    38    1
    21    31    34    1
    22    31    39    1
    23    32    35    1
    24    32    40    1
    25    41    43   ar
    26    15    19    2
    27    42    43   ar
    28    16    22    2
    29    17    12    1
    30    17    19   ar
    31    17    20   ar
    32    18    19   ar
    33    18    22   ar
    34    18    23    1
    35     9    10    1
    36     9    11    1
    37    10    12    1
    38    11     5    1
    39    33    34    1
    40    33    35    1
    41    34    36    1
    42    35    37    1
    43    37    43    1
    44    20    21   ar
    45    21    22   ar
@<TRIPOS>MOLECULE
*****
 43 45 0 0 0
SMALL
GASTEIGER

@<TRIPOS>ATOM
      1 P          22.8677   71.8147   -2.4684 P.3     1  UNL1        0.2189
      2 O          23.6943   73.2003   -2.5940 O.co2   1  UNL1       -0.4371
      3 O          23.4412   70.6626   -3.2401 O.2     1  UNL1       -0.5170
      4 O          21.3515   72.2309   -2.8504 O.3     1  UNL1       -0.3112
      5 C          20.5946   71.3544   -3.6649 C.3     1  UNL1        0.1811
      6 O          18.6482   72.1784   -4.8096 O.3     1  UNL1       -0.3308
      7 O          17.0539   70.9889   -2.5657 O.3     1  UNL1       -0.3794
      8 O          16.7665   69.1379   -4.5474 O.3     1  UNL1       -0.3779
      9 C          18.2458   70.5033   -3.1838 C.3     1  UNL1        0.1713
     10 C          17.9326   69.9345   -4.5516 C.3     1  UNL1        0.1895
     11 C          19.1178   71.7026   -3.5296 C.3     1  UNL1        0.1764
     12 C          17.7782   71.1929   -5.3886 C.3     1  UNL1        0.2383
     13 H          16.4806   70.2405   -2.3357 H       1  UNL1        0.2105
     14 H          16.9155   68.3494   -4.0015 H       1  UNL1        0.2106
     15 O          16.0074   70.3284   -7.4118 O.2     1  UNL1       -0.2464
     16 O          19.3206   70.4418  -10.6140 O.2     1  UNL1       -0.2670
     17 N          18.1516   70.9883   -6.7596 N.ar    1  UNL1       -0.2551
     18 N          17.6595   70.3847   -9.0045 N.ar    1  UNL1       -0.2743
     19 C          17.1854   70.5523   -7.6968 C.ar    1  UNL1        0.3323
     20 C          19.4607   71.2203   -7.1640 C.ar    1  UNL1        0.0869
     21 C          19.8977   71.0563   -8.4141 C.ar    1  UNL1        0.0795
     22 C          18.9517   70.6022   -9.4545 C.ar    1  UNL1        0.2626
     23 H          17.0055   70.0798   -9.6744 H       1  UNL1        0.1734
     24 O          22.7891   71.5825   -0.8707 O.3     1  UNL1       -0.2703
     25 P          21.9626   70.5044    0.0058 P.3     1  UNL1        0.2208
     26 O          23.1156   69.5042    0.5449 O.co2   1  UNL1       -0.4371
     27 O          20.8533   69.8233   -0.7422 O.2     1  UNL1       -0.5170
     28 O          21.4863   71.3194    1.3140 O.3     1  UNL1       -0.2858
     29 O          22.1112   73.5922    1.0838 O.3     1  UNL1       -0.3226
     30 O          20.3864   73.5706    4.8378 O.3     1  UNL1       -0.3794
     31 O          22.1610   71.4023    4.0110 O.3     1  UNL1       -0.3775
     32 O          18.9386   74.6779    2.5732 O.3     1  UNL1       -0.3792
     33 C          20.5673   73.1541    3.4844 C.3     1  UNL1        0.1718
     34 C          21.9883   72.6217    3.2983 C.3     1  UNL1        0.1968
     35 C          20.3305   74.3663    2.5809 C.3     1  UNL1        0.1723
     36 C          22.2933   72.3815    1.8191 C.3     1  UNL1        0.2706
     37 C          20.7761   74.0887    1.1481 C.3     1  UNL1        0.1830
     38 H          20.5319   72.8164    5.4306 H       1  UNL1        0.2105
     39 H          21.9688   71.5472    4.9504 H       1  UNL1        0.2106
     40 H          18.6422   74.8566    3.4793 H       1  UNL1        0.2106
     41 O          19.6948   75.5701   -0.3140 O.co2   1  UNL1       -0.5466
     42 O          21.8169   76.1044    0.3265 O.co2   1  UNL1       -0.5466
     43 C          20.8514   75.3564    0.3610 C.2     1  UNL1        0.0799
@<TRIPOS>UNITY_ATOM_ATTR
2 1
charge -1
26 1
charge -1
41 1
charge -1
@<TRIPOS>BOND
     1     1     4    1
     2     1    24    1
     3     1     2    1
     4     1     3    2
     5    25    28    1
     6    25    24    1
     7    25    26    1
     8    25    27    2
     9     6    11    1
    10     6    12    1
    11    29    36    1
    12    29    37    1
    13     7     9    1
    14     7    13    1
    15     8    10    1
    16     8    14    1
    17     4     5    1
    18    28    36    1
    19    30    33    1
    20    30    38    1
    21    31    34    1
    22    31    39    1
    23    32    35    1
    24    32    40    1
    25    41    43   ar
    26    15    19    2
    27    42    43   ar
    28    16    22    2
    29    17    12    1
    30    17    19   ar
    31    17    20   ar
    32    18    19   ar
    33    18    22   ar
    34    18    23    1
    35     9    10    1
    36     9    11    1
    37    10    12    1
    38    11     5    1
    39    33    34    1
    40    33    35    1
    41    34    36    1
    42    35    37    1
    43    37    43    1
    44    20    21   ar
    45    21    22   ar
@<TRIPOS>MOLECULE
*****
 43 45 0 0 0
SMALL
GASTEIGER

@<TRIPOS>ATOM
      1 P          21.9538   73.7493   -6.0039 P.3     1  UNL1        0.2189
      2 O          22.3202   75.3136   -6.1973 O.co2   1  UNL1       -0.4371
      3 O          22.8220   72.7957   -6.7711 O.2     1  UNL1       -0.5170
      4 O          20.3709   73.6777   -6.3318 O.3     1  UNL1       -0.3112
      5 C          19.8769   74.4042   -7.4420 C.3     1  UNL1        0.1811
      6 O          19.6428   72.0855   -8.0307 O.3     1  UNL1       -0.3308
      7 O          17.9615   73.0302  -10.3268 O.3     1  UNL1       -0.3794
      8 O          16.0933   72.1991   -8.5227 O.3     1  UNL1       -0.3779
      9 C          18.0561   73.5521   -9.0012 C.3     1  UNL1        0.1713
     10 C          17.3396   72.6412   -8.0270 C.3     1  UNL1        0.1895
     11 C          19.5045   73.4262   -8.5489 C.3     1  UNL1        0.1764
     12 C          18.3383   71.5084   -7.8616 C.3     1  UNL1        0.2383
     13 H          17.0449   73.0999  -10.6375 H       1  UNL1        0.2105
     14 H          15.4929   72.9566   -8.6099 H       1  UNL1        0.2106
     15 O          16.1353   70.0042   -6.9339 O.2     1  UNL1       -0.2464
     16 O          18.1584   69.2062   -2.8701 O.2     1  UNL1       -0.2670
     17 N          18.2630   70.8963   -6.5653 N.ar    1  UNL1       -0.2551
     18 N          17.1446   69.6090   -4.9104 N.ar    1  UNL1       -0.2743
     19 C          17.1109   70.1618   -6.1974 C.ar    1  UNL1        0.3323
     20 C          19.3221   71.0247   -5.6750 C.ar    1  UNL1        0.0869
     21 C          19.3398   70.4920   -4.4516 C.ar    1  UNL1        0.0795
     22 C          18.1745   69.7101   -3.9891 C.ar    1  UNL1        0.2626
     23 H          16.3528   69.0950   -4.6310 H       1  UNL1        0.1734
     24 O          22.0013   73.5611   -4.3992 O.3     1  UNL1       -0.2703
     25 P          23.1349   72.9246   -3.4383 P.3     1  UNL1        0.2208
     26 O          24.4319   73.8465   -3.7354 O.co2   1  UNL1       -0.4371
     27 O          23.3611   71.4546   -3.6428 O.2     1  UNL1       -0.5170
     28 O          22.6804   73.3305   -1.9446 O.3     1  UNL1       -0.2858
     29 O          21.5771   71.5775   -0.7961 O.3     1  UNL1       -0.3226
     30 O          21.0474   74.7473    1.7999 O.3     1  UNL1       -0.3794
     31 O          20.7386   75.1247   -1.0805 O.3     1  UNL1       -0.3775
     32 O          23.0088   72.6859    2.3951 O.3     1  UNL1       -0.3792
     33 C          21.7255   73.9713    0.8121 C.3     1  UNL1        0.1718
     34 C          20.8533   73.8599   -0.4387 C.3     1  UNL1        0.1968
     35 C          21.9911   72.5840    1.4009 C.3     1  UNL1        0.1723
     36 C          21.4405   72.8513   -1.4271 C.3     1  UNL1        0.2706
     37 C          22.4540   71.6026    0.3279 C.3     1  UNL1        0.1830
     38 H          20.8679   75.6335    1.4480 H       1  UNL1        0.2105
     39 H          20.3670   75.7696   -0.4590 H       1  UNL1        0.2106
     40 H          22.7267   73.3078    3.0840 H       1  UNL1        0.2106
     41 O          23.3597   69.9791    1.7582 O.co2   1  UNL1       -0.5466
     42 O          21.5859   69.3558    0.4681 O.co2   1  UNL1       -0.5466
     43 C          22.3932   70.1976    0.8323 C.2     1  UNL1        0.0799
@<TRIPOS>UNITY_ATOM_ATTR
2 1
charge -1
26 1
charge -1
41 1
charge -1
@<TRIPOS>BOND
     1     1     4    1
     2     1    24    1
     3     1     2    1
     4     1     3    2
     5    25    28    1
     6    25    24    1
     7    25    26    1
     8    25    27    2
     9     6    11    1
    10     6    12    1
    11    29    36    1
    12    29    37    1
    13     7     9    1
    14     7    13    1
    15     8    10    1
    16     8    14    1
    17     4     5    1
    18    28    36    1
    19    30    33    1
    20    30    38    1
    21    31    34    1
    22    31    39    1
    23    32    35    1
    24    32    40    1
    25    41    43   ar
    26    15    19    2
    27    42    43   ar
    28    16    22    2
    29    17    12    1
    30    17    19   ar
    31    17    20   ar
    32    18    19   ar
    33    18    22   ar
    34    18    23    1
    35     9    10    1
    36     9    11    1
    37    10    12    1
    38    11     5    1
    39    33    34    1
    40    33    35    1
    41    34    36    1
    42    35    37    1
    43    37    43    1
    44    20    21   ar
    45    21    22   ar
@<TRIPOS>MOLECULE
*****
 43 45 0 0 0
SMALL
GASTEIGER

@<TRIPOS>ATOM
      1 P          22.6001   73.1457   -4.3554 P.3     1  UNL1        0.2189
      2 O          22.7822   74.0956   -5.6529 O.co2   1  UNL1       -0.4371
      3 O          23.8533   72.4658   -3.8871 O.2     1  UNL1       -0.5170
      4 O          21.3781   72.1655   -4.7598 O.3     1  UNL1       -0.3112
      5 C          20.8134   71.3400   -3.7578 C.3     1  UNL1        0.1811
      6 O          18.8386   72.1815   -4.8391 O.3     1  UNL1       -0.3308
      7 O          17.3127   71.0572   -2.5156 O.3     1  UNL1       -0.3794
      8 O          16.9148   69.1807   -4.4538 O.3     1  UNL1       -0.3779
      9 C          18.4706   70.5400   -3.1716 C.3     1  UNL1        0.1713
     10 C          18.0939   69.9556   -4.5165 C.3     1  UNL1        0.1895
     11 C          19.3495   71.7174   -3.5708 C.3     1  UNL1        0.1764
     12 C          17.9292   71.2032   -5.3675 C.3     1  UNL1        0.2383
     13 H          16.7356   70.3232   -2.2511 H       1  UNL1        0.2105
     14 H          17.0710   68.3984   -3.9011 H       1  UNL1        0.2106
     15 O          16.0593   70.3658   -7.3114 O.2     1  UNL1       -0.2464
     16 O          19.2519   70.3401  -10.6357 O.2     1  UNL1       -0.2670
     17 N          18.2448   70.9701   -6.7485 N.ar    1  UNL1       -0.2551
     18 N          17.6514   70.3528   -8.9650 N.ar    1  UNL1       -0.2743
     19 C          17.2317   70.5510   -7.6430 C.ar    1  UNL1        0.3323
     20 C          19.5439   71.1581   -7.2043 C.ar    1  UNL1        0.0869
     21 C          19.9287   70.9653   -8.4675 C.ar    1  UNL1        0.0795
     22 C          18.9316   70.5261   -9.4656 C.ar    1  UNL1        0.2626
     23 H          16.9642   70.0589   -9.6058 H       1  UNL1        0.1734
     24 O          21.9268   74.1376   -3.2711 O.3     1  UNL1       -0.2703
     25 P          22.5861   75.0273   -2.0932 P.3     1  UNL1        0.2208
     26 O          21.5383   76.2493   -1.9221 O.co2   1  UNL1       -0.4371
     27 O          23.9988   75.4574   -2.3637 O.2     1  UNL1       -0.5170
     28 O          22.4000   74.1414   -0.7580 O.3     1  UNL1       -0.2858
     29 O          21.2655   72.0672   -0.6165 O.3     1  UNL1       -0.3226
     30 O          20.8991   73.4909    3.2445 O.3     1  UNL1       -0.3794
     31 O          20.5384   75.2823    0.9651 O.3     1  UNL1       -0.3775
     32 O          22.8043   71.3793    2.6425 O.3     1  UNL1       -0.3792
     33 C          21.5289   73.3117    1.9759 C.3     1  UNL1        0.1718
     34 C          20.6257   73.8650    0.8734 C.3     1  UNL1        0.1968
     35 C          21.7617   71.8131    1.7711 C.3     1  UNL1        0.1723
     36 C          21.1568   73.4872   -0.5101 C.3     1  UNL1        0.2706
     37 C          22.1677   71.5038    0.3330 C.3     1  UNL1        0.1830
     38 H          20.7411   74.4360    3.3965 H       1  UNL1        0.2105
     39 H          20.2023   75.5291    1.8406 H       1  UNL1        0.2106
     40 H          22.5584   71.5705    3.5611 H       1  UNL1        0.2106
     41 O          20.9928   69.7661   -0.7165 O.co2   1  UNL1       -0.5466
     42 O          22.8549   69.1950    0.4689 O.co2   1  UNL1       -0.5466
     43 C          22.0719   70.0383    0.0583 C.2     1  UNL1        0.0799
@<TRIPOS>UNITY_ATOM_ATTR
2 1
charge -1
26 1
charge -1
41 1
charge -1
@<TRIPOS>BOND
     1     1     4    1
     2     1    24    1
     3     1     2    1
     4     1     3    2
     5    25    28    1
     6    25    24    1
     7    25    26    1
     8    25    27    2
     9     6    11    1
    10     6    12    1
    11    29    36    1
    12    29    37    1
    13     7     9    1
    14     7    13    1
    15     8    10    1
    16     8    14    1
    17     4     5    1
    18    28    36    1
    19    30    33    1
    20    30    38    1
    21    31    34    1
    22    31    39    1
    23    32    35    1
    24    32    40    1
    25    41    43   ar
    26    15    19    2
    27    42    43   ar
    28    16    22    2
    29    17    12    1
    30    17    19   ar
    31    17    20   ar
    32    18    19   ar
    33    18    22   ar
    34    18    23    1
    35     9    10    1
    36     9    11    1
    37    10    12    1
    38    11     5    1
    39    33    34    1
    40    33    35    1
    41    34    36    1
    42    35    37    1
    43    37    43    1
    44    20    21   ar
    45    21    22   ar
@<TRIPOS>MOLECULE
*****
 43 45 0 0 0
SMALL
GASTEIGER

@<TRIPOS>ATOM
      1 P          22.4955   73.1178   -3.5196 P.3     1  UNL1        0.2189
      2 O          23.8640   72.3929   -3.9894 O.co2   1  UNL1       -0.4371
      3 O          22.3248   73.2473   -2.0343 O.2     1  UNL1       -0.5170
      4 O          21.3354   72.2950   -4.2910 O.3     1  UNL1       -0.3112
      5 C          20.6734   71.2513   -3.6004 C.3     1  UNL1        0.1811
      6 O          18.7244   72.0932   -4.7275 O.3     1  UNL1       -0.3308
      7 O          17.1388   70.9099   -2.4742 O.3     1  UNL1       -0.3794
      8 O          16.8216   69.0665   -4.4584 O.3     1  UNL1       -0.3779
      9 C          18.3221   70.4169   -3.1030 C.3     1  UNL1        0.1713
     10 C          17.9937   69.8541   -4.4696 C.3     1  UNL1        0.1895
     11 C          19.2005   71.6104   -3.4525 C.3     1  UNL1        0.1764
     12 C          17.8424   71.1159   -5.3022 C.3     1  UNL1        0.2383
     13 H          16.5616   70.1653   -2.2415 H       1  UNL1        0.2105
     14 H          16.9688   68.2754   -3.9156 H       1  UNL1        0.2106
     15 O          15.9928   70.6449   -7.3839 O.2     1  UNL1       -0.2464
     16 O          19.3406   70.3477  -10.5379 O.2     1  UNL1       -0.2670
     17 N          18.2034   70.9120   -6.6766 N.ar    1  UNL1       -0.2551
     18 N          17.6620   70.4963   -8.9526 N.ar    1  UNL1       -0.2743
     19 C          17.1968   70.6830   -7.6443 C.ar    1  UNL1        0.3323
     20 C          19.5403   70.9417   -7.0543 C.ar    1  UNL1        0.0869
     21 C          19.9684   70.7622   -8.3054 C.ar    1  UNL1        0.0795
     22 C          18.9808   70.5163   -9.3767 C.ar    1  UNL1        0.2626
     23 H          16.9798   70.3331   -9.6435 H       1  UNL1        0.1734
     24 O          22.5366   74.5228   -4.3177 O.3     1  UNL1       -0.2703
     25 P          23.4387   75.8454   -4.0927 P.3     1  UNL1        0.2208
     26 O          24.9469   75.3103   -4.3362 O.co2   1  UNL1       -0.4371
     27 O          23.2272   76.5166   -2.7665 O.2     1  UNL1       -0.5170
     28 O          23.1256   76.7769   -5.3720 O.3     1  UNL1       -0.2858
     29 O          23.5905   75.2843   -7.1511 O.3     1  UNL1       -0.3226
     30 O          21.7827   78.4232   -9.1379 O.3     1  UNL1       -0.3794
     31 O          23.7281   78.9353   -7.0195 O.3     1  UNL1       -0.3775
     32 O          20.3134   75.9616   -8.6557 O.3     1  UNL1       -0.3792
     33 C          22.0254   77.5417   -8.0415 C.3     1  UNL1        0.1718
     34 C          23.4851   77.6604   -7.6027 C.3     1  UNL1        0.1968
     35 C          21.7235   76.1151   -8.5058 C.3     1  UNL1        0.1723
     36 C          23.8418   76.5726   -6.5886 C.3     1  UNL1        0.2706
     37 C          22.2220   75.0838   -7.4976 C.3     1  UNL1        0.1830
     38 H          21.9680   79.3360   -8.8662 H       1  UNL1        0.2105
     39 H          23.5037   79.6303   -7.6574 H       1  UNL1        0.2106
     40 H          19.9834   76.6124   -9.2948 H       1  UNL1        0.2106
     41 O          22.7650   72.8171   -7.2356 O.co2   1  UNL1       -0.5466
     42 O          21.7981   73.4339   -9.2063 O.co2   1  UNL1       -0.5466
     43 C          22.2245   73.7149   -8.0962 C.2     1  UNL1        0.0799
@<TRIPOS>UNITY_ATOM_ATTR
2 1
charge -1
26 1
charge -1
41 1
charge -1
@<TRIPOS>BOND
     1     1     4    1
     2     1    24    1
     3     1     2    1
     4     1     3    2
     5    25    28    1
     6    25    24    1
     7    25    26    1
     8    25    27    2
     9     6    11    1
    10     6    12    1
    11    29    36    1
    12    29    37    1
    13     7     9    1
    14     7    13    1
    15     8    10    1
    16     8    14    1
    17     4     5    1
    18    28    36    1
    19    30    33    1
    20    30    38    1
    21    31    34    1
    22    31    39    1
    23    32    35    1
    24    32    40    1
    25    41    43   ar
    26    15    19    2
    27    42    43   ar
    28    16    22    2
    29    17    12    1
    30    17    19   ar
    31    17    20   ar
    32    18    19   ar
    33    18    22   ar
    34    18    23    1
    35     9    10    1
    36     9    11    1
    37    10    12    1
    38    11     5    1
    39    33    34    1
    40    33    35    1
    41    34    36    1
    42    35    37    1
    43    37    43    1
    44    20    21   ar
    45    21    22   ar
@<TRIPOS>MOLECULE
*****
 43 45 0 0 0
SMALL
GASTEIGER

@<TRIPOS>ATOM
      1 P          22.9018   71.9153   -3.1458 P.3     1  UNL1        0.2189
      2 O          23.7547   70.5414   -3.2088 O.co2   1  UNL1       -0.4371
      3 O          22.6354   72.4327   -1.7627 O.2     1  UNL1       -0.5170
      4 O          21.5923   71.6011   -4.0428 O.3     1  UNL1       -0.3112
      5 C          20.7130   70.5754   -3.6194 C.3     1  UNL1        0.1811
      6 O          18.9384   71.7952   -4.6874 O.3     1  UNL1       -0.3308
      7 O          17.1584   70.7407   -2.5169 O.3     1  UNL1       -0.3794
      8 O          16.5667   69.1073   -4.6188 O.3     1  UNL1       -0.3779
      9 C          18.2523   70.1040   -3.1775 C.3     1  UNL1        0.1713
     10 C          17.8512   69.6929   -4.5783 C.3     1  UNL1        0.1895
     11 C          19.3165   71.1590   -3.4474 C.3     1  UNL1        0.1764
     12 C          17.9154   71.0141   -5.3253 C.3     1  UNL1        0.2383
     13 H          16.4655   70.0863   -2.3339 H       1  UNL1        0.2105
     14 H          16.5779   68.2691   -4.1298 H       1  UNL1        0.2106
     15 O          16.0333   70.5571   -7.3809 O.2     1  UNL1       -0.2464
     16 O          19.3235   70.3790  -10.6037 O.2     1  UNL1       -0.2670
     17 N          18.2528   70.8447   -6.7104 N.ar    1  UNL1       -0.2551
     18 N          17.6739   70.4678   -8.9839 N.ar    1  UNL1       -0.2743
     19 C          17.2313   70.6198   -7.6633 C.ar    1  UNL1        0.3323
     20 C          19.5815   70.9036   -7.1128 C.ar    1  UNL1        0.0869
     21 C          19.9880   70.7570   -8.3754 C.ar    1  UNL1        0.0795
     22 C          18.9838   70.5177   -9.4326 C.ar    1  UNL1        0.2626
     23 H          16.9810   70.3082   -9.6650 H       1  UNL1        0.1734
     24 O          23.7550   72.9155   -4.0863 O.3     1  UNL1       -0.2703
     25 P          23.8178   74.5302   -4.1362 P.3     1  UNL1        0.2208
     26 O          25.4062   74.8399   -4.0999 O.co2   1  UNL1       -0.4371
     27 O          23.0302   75.2109   -3.0545 O.2     1  UNL1       -0.5170
     28 O          23.3629   74.9113   -5.6363 O.3     1  UNL1       -0.2858
     29 O          21.3326   75.8285   -6.4398 O.3     1  UNL1       -0.3226
     30 O          22.4682   73.4108   -9.5915 O.3     1  UNL1       -0.3794
     31 O          22.7444   72.4795   -6.8364 O.3     1  UNL1       -0.3775
     32 O          22.7921   76.2940   -9.7738 O.3     1  UNL1       -0.3792
     33 C          22.6704   74.2712   -8.4705 C.3     1  UNL1        0.1718
     34 C          22.0348   73.6493   -7.2268 C.3     1  UNL1        0.1968
     35 C          22.0171   75.6189   -8.7848 C.3     1  UNL1        0.1723
     36 C          22.0287   74.6402   -6.0619 C.3     1  UNL1        0.2706
     37 C          21.9355   76.5016   -7.5427 C.3     1  UNL1        0.1830
     38 H          22.8750   72.5480   -9.4146 H       1  UNL1        0.2105
     39 H          22.7525   71.8465   -7.5709 H       1  UNL1        0.2106
     40 H          22.8519   75.7426  -10.5696 H       1  UNL1        0.2106
     41 O          20.5860   78.1686   -6.5931 O.co2   1  UNL1       -0.5466
     42 O          20.6961   78.0908   -8.8693 O.co2   1  UNL1       -0.5466
     43 C          21.0173   77.6576   -7.7729 C.2     1  UNL1        0.0799
@<TRIPOS>UNITY_ATOM_ATTR
2 1
charge -1
26 1
charge -1
41 1
charge -1
@<TRIPOS>BOND
     1     1     4    1
     2     1    24    1
     3     1     2    1
     4     1     3    2
     5    25    28    1
     6    25    24    1
     7    25    26    1
     8    25    27    2
     9     6    11    1
    10     6    12    1
    11    29    36    1
    12    29    37    1
    13     7     9    1
    14     7    13    1
    15     8    10    1
    16     8    14    1
    17     4     5    1
    18    28    36    1
    19    30    33    1
    20    30    38    1
    21    31    34    1
    22    31    39    1
    23    32    35    1
    24    32    40    1
    25    41    43   ar
    26    15    19    2
    27    42    43   ar
    28    16    22    2
    29    17    12    1
    30    17    19   ar
    31    17    20   ar
    32    18    19   ar
    33    18    22   ar
    34    18    23    1
    35     9    10    1
    36     9    11    1
    37    10    12    1
    38    11     5    1
    39    33    34    1
    40    33    35    1
    41    34    36    1
    42    35    37    1
    43    37    43    1
    44    20    21   ar
    45    21    22   ar
@<TRIPOS>MOLECULE
*****
 43 45 0 0 0
SMALL
GASTEIGER

@<TRIPOS>ATOM
      1 P          22.3088   73.3658   -5.2854 P.3     1  UNL1        0.2189
      2 O          22.7148   74.7879   -5.9423 O.co2   1  UNL1       -0.4371
      3 O          23.4452   72.6069   -4.6653 O.2     1  UNL1       -0.5170
      4 O          21.5180   72.6013   -6.4720 O.3     1  UNL1       -0.3112
      5 C          20.8041   73.3764   -7.4175 C.3     1  UNL1        0.1811
      6 O          19.9943   71.1480   -7.8125 O.3     1  UNL1       -0.3308
      7 O          18.4561   72.3136  -10.1075 O.3     1  UNL1       -0.3794
      8 O          16.5504   72.0784   -8.1712 O.3     1  UNL1       -0.3779
      9 C          18.7472   72.8848   -8.8317 C.3     1  UNL1        0.1713
     10 C          17.8923   72.2400   -7.7614 C.3     1  UNL1        0.1895
     11 C          20.1480   72.4449   -8.4286 C.3     1  UNL1        0.1764
     12 C          18.6021   70.9141   -7.5472 C.3     1  UNL1        0.2383
     13 H          17.5658   72.5807  -10.3862 H       1  UNL1        0.2105
     14 H          16.1426   72.9505   -8.2938 H       1  UNL1        0.2106
     15 O          16.3346   69.5303   -6.5879 O.2     1  UNL1       -0.2464
     16 O          18.1589   69.0881   -2.3783 O.2     1  UNL1       -0.2670
     17 N          18.4581   70.4260   -6.2048 N.ar    1  UNL1       -0.2551
     18 N          17.2449   69.3123   -4.4919 N.ar    1  UNL1       -0.2743
     19 C          17.2784   69.7435   -5.8246 C.ar    1  UNL1        0.3323
     20 C          19.4781   70.6234   -5.2820 C.ar    1  UNL1        0.0869
     21 C          19.4317   70.2065   -4.0152 C.ar    1  UNL1        0.0795
     22 C          18.2338   69.4856   -3.5371 C.ar    1  UNL1        0.2626
     23 H          16.4328   68.8364   -4.2033 H       1  UNL1        0.1734
     24 O          21.1258   73.7648   -4.2586 O.3     1  UNL1       -0.2703
     25 P          21.1800   74.3357   -2.7471 P.3     1  UNL1        0.2208
     26 O          19.6651   74.8445   -2.4893 O.co2   1  UNL1       -0.4371
     27 O          22.2311   75.3838   -2.5220 O.2     1  UNL1       -0.5170
     28 O          21.3326   73.0246   -1.8196 O.3     1  UNL1       -0.2858
     29 O          23.0124   73.4111   -0.1954 O.3     1  UNL1       -0.3226
     30 O          21.9287   69.5103    0.6278 O.3     1  UNL1       -0.3794
     31 O          22.2319   70.4115   -2.1345 O.3     1  UNL1       -0.3775
     32 O          21.0316   71.6695    2.3552 O.3     1  UNL1       -0.3792
     33 C          21.7256   70.8559    0.1962 C.3     1  UNL1        0.1718
     34 C          22.6395   71.1556   -0.9922 C.3     1  UNL1        0.1968
     35 C          22.0549   71.7832    1.3682 C.3     1  UNL1        0.1723
     36 C          22.6197   72.6457   -1.3354 C.3     1  UNL1        0.2706
     37 C          22.1403   73.2392    0.9195 C.3     1  UNL1        0.1830
     38 H          21.7255   68.9027   -0.1007 H       1  UNL1        0.2105
     39 H          22.2419   69.4650   -1.9237 H       1  UNL1        0.2106
     40 H          20.9669   70.7475    2.6492 H       1  UNL1        0.2106
     41 O          21.9890   74.1428    3.0787 O.co2   1  UNL1       -0.5466
     42 O          23.8560   74.6444    1.8697 O.co2   1  UNL1       -0.5466
     43 C          22.7758   74.0834    1.9757 C.2     1  UNL1        0.0799
@<TRIPOS>UNITY_ATOM_ATTR
2 1
charge -1
26 1
charge -1
41 1
charge -1
@<TRIPOS>BOND
     1     1     4    1
     2     1    24    1
     3     1     2    1
     4     1     3    2
     5    25    28    1
     6    25    24    1
     7    25    26    1
     8    25    27    2
     9     6    11    1
    10     6    12    1
    11    29    36    1
    12    29    37    1
    13     7     9    1
    14     7    13    1
    15     8    10    1
    16     8    14    1
    17     4     5    1
    18    28    36    1
    19    30    33    1
    20    30    38    1
    21    31    34    1
    22    31    39    1
    23    32    35    1
    24    32    40    1
    25    41    43   ar
    26    15    19    2
    27    42    43   ar
    28    16    22    2
    29    17    12    1
    30    17    19   ar
    31    17    20   ar
    32    18    19   ar
    33    18    22   ar
    34    18    23    1
    35     9    10    1
    36     9    11    1
    37    10    12    1
    38    11     5    1
    39    33    34    1
    40    33    35    1
    41    34    36    1
    42    35    37    1
    43    37    43    1
    44    20    21   ar
    45    21    22   ar
@<TRIPOS>MOLECULE
*****
 43 45 0 0 0
SMALL
GASTEIGER

@<TRIPOS>ATOM
      1 P          22.3896   73.0854   -3.8643 P.3     1  UNL1        0.2189
      2 O          23.8493   72.3892   -3.9238 O.co2   1  UNL1       -0.4371
      3 O          21.9901   73.6052   -2.5145 O.2     1  UNL1       -0.5170
      4 O          21.4038   71.9769   -4.5103 O.3     1  UNL1       -0.3112
      5 C          20.7583   71.0602   -3.6457 C.3     1  UNL1        0.1811
      6 O          18.8348   72.0158   -4.7248 O.3     1  UNL1       -0.3308
      7 O          17.2285   70.8607   -2.4715 O.3     1  UNL1       -0.3794
      8 O          16.7958   69.0764   -4.4877 O.3     1  UNL1       -0.3779
      9 C          18.3779   70.3263   -3.1287 C.3     1  UNL1        0.1713
     10 C          18.0034   69.8085   -4.5012 C.3     1  UNL1        0.1895
     11 C          19.3063   71.4846   -3.4675 C.3     1  UNL1        0.1764
     12 C          17.8994   71.0932   -5.3054 C.3     1  UNL1        0.2383
     13 H          16.6204   70.1392   -2.2451 H       1  UNL1        0.2105
     14 H          16.9136   68.2681   -3.9636 H       1  UNL1        0.2106
     15 O          16.0351   70.3960   -7.3091 O.2     1  UNL1       -0.2464
     16 O          19.2810   70.3848  -10.5815 O.2     1  UNL1       -0.2670
     17 N          18.2302   70.9018   -6.6892 N.ar    1  UNL1       -0.2551
     18 N          17.6537   70.3901   -8.9368 N.ar    1  UNL1       -0.2743
     19 C          17.2187   70.5525   -7.6149 C.ar    1  UNL1        0.3323
     20 C          19.5426   71.0614   -7.1171 C.ar    1  UNL1        0.0869
     21 C          19.9420   70.9033   -8.3805 C.ar    1  UNL1        0.0795
     22 C          18.9474   70.5374   -9.4103 C.ar    1  UNL1        0.2626
     23 H          16.9678   70.1449   -9.5992 H       1  UNL1        0.1734
     24 O          22.4773   74.2116   -5.0206 O.3     1  UNL1       -0.2703
     25 P          22.1866   74.1272   -6.6087 P.3     1  UNL1        0.2208
     26 O          20.5774   74.2774   -6.6986 O.co2   1  UNL1       -0.4371
     27 O          22.7305   72.8937   -7.2696 O.2     1  UNL1       -0.5170
     28 O          22.7589   75.5132   -7.2037 O.3     1  UNL1       -0.2858
     29 O          21.8145   76.5049   -9.1360 O.3     1  UNL1       -0.3226
     30 O          25.5156   78.3335   -8.9760 O.3     1  UNL1       -0.3794
     31 O          25.2518   75.4746   -8.4364 O.3     1  UNL1       -0.3775
     32 O          23.1326   79.7894   -8.1682 O.3     1  UNL1       -0.3792
     33 C          24.3398   77.7227   -8.4446 C.3     1  UNL1        0.1718
     34 C          24.2209   76.2939   -8.9754 C.3     1  UNL1        0.1968
     35 C          23.1340   78.5560   -8.8845 C.3     1  UNL1        0.1723
     36 C          22.8637   75.6878   -8.6155 C.3     1  UNL1        0.2706
     37 C          21.8221   77.8283   -8.6052 C.3     1  UNL1        0.1830
     38 H          26.2951   77.8211   -8.7094 H       1  UNL1        0.2105
     39 H          26.1159   75.8534   -8.6607 H       1  UNL1        0.2106
     40 H          23.9624   80.2625   -8.3373 H       1  UNL1        0.2106
     41 O          19.5610   77.7372   -9.2221 O.co2   1  UNL1       -0.5466
     42 O          20.7575   79.5484   -9.9200 O.co2   1  UNL1       -0.5466
     43 C          20.6882   78.4844   -9.3234 C.2     1  UNL1        0.0799
@<TRIPOS>UNITY_ATOM_ATTR
2 1
charge -1
26 1
charge -1
41 1
charge -1
@<TRIPOS>BOND
     1     1     4    1
     2     1    24    1
     3     1     2    1
     4     1     3    2
     5    25    28    1
     6    25    24    1
     7    25    26    1
     8    25    27    2
     9     6    11    1
    10     6    12    1
    11    29    36    1
    12    29    37    1
    13     7     9    1
    14     7    13    1
    15     8    10    1
    16     8    14    1
    17     4     5    1
    18    28    36    1
    19    30    33    1
    20    30    38    1
    21    31    34    1
    22    31    39    1
    23    32    35    1
    24    32    40    1
    25    41    43   ar
    26    15    19    2
    27    42    43   ar
    28    16    22    2
    29    17    12    1
    30    17    19   ar
    31    17    20   ar
    32    18    19   ar
    33    18    22   ar
    34    18    23    1
    35     9    10    1
    36     9    11    1
    37    10    12    1
    38    11     5    1
    39    33    34    1
    40    33    35    1
    41    34    36    1
    42    35    37    1
    43    37    43    1
    44    20    21   ar
    45    21    22   ar
@<TRIPOS>MOLECULE
*****
 43 45 0 0 0
SMALL
GASTEIGER

@<TRIPOS>ATOM
      1 P          22.1591   73.7864   -4.4458 P.3     1  UNL1        0.2189
      2 O          23.2534   72.6203   -4.6940 O.co2   1  UNL1       -0.4371
      3 O          22.2503   74.4672   -3.1116 O.2     1  UNL1       -0.5170
      4 O          20.7462   73.0694   -4.7736 O.3     1  UNL1       -0.3112
      5 C          19.5607   73.6415   -4.2523 C.3     1  UNL1        0.1811
      6 O          17.8751   72.0495   -4.8863 O.3     1  UNL1       -0.3308
      7 O          18.5373   70.6136   -2.3385 O.3     1  UNL1       -0.3794
      8 O          19.8606   69.1410   -4.2137 O.3     1  UNL1       -0.3779
      9 C          19.4023   71.3171   -3.2304 C.3     1  UNL1        0.1713
     10 C          19.6287   70.5066   -4.4890 C.3     1  UNL1        0.1895
     11 C          18.6457   72.5267   -3.7621 C.3     1  UNL1        0.1764
     12 C          18.3346   70.7381   -5.2503 C.3     1  UNL1        0.2383
     13 H          18.9989   69.8363   -1.9858 H       1  UNL1        0.2105
     14 H          20.6958   69.0463   -3.7284 H       1  UNL1        0.2106
     15 O          16.2544   70.3169   -7.1136 O.2     1  UNL1       -0.2464
     16 O          19.1579   70.5577  -10.6851 O.2     1  UNL1       -0.2670
     17 N          18.5189   70.6862   -6.6730 N.ar    1  UNL1       -0.2551
     18 N          17.7026   70.4362   -8.8905 N.ar    1  UNL1       -0.2743
     19 C          17.4074   70.4692   -7.5213 C.ar    1  UNL1        0.3323
     20 C          19.7881   70.8507   -7.2144 C.ar    1  UNL1        0.0869
     21 C          20.0538   70.8169   -8.5217 C.ar    1  UNL1        0.0795
     22 C          18.9482   70.5940   -9.4764 C.ar    1  UNL1        0.2626
     23 H          16.9451   70.2844   -9.5009 H       1  UNL1        0.1734
     24 O          22.3745   74.7626   -5.7160 O.3     1  UNL1       -0.2703
     25 P          23.3867   76.0028   -5.9419 P.3     1  UNL1        0.2208
     26 O          24.7181   75.5437   -5.1438 O.co2   1  UNL1       -0.4371
     27 O          22.8367   77.3325   -5.5137 O.2     1  UNL1       -0.5170
     28 O          23.7964   75.9181   -7.4999 O.3     1  UNL1       -0.2858
     29 O          22.7775   76.8880   -9.4052 O.3     1  UNL1       -0.3226
     30 O          24.2644   73.3578  -10.9526 O.3     1  UNL1       -0.3794
     31 O          22.9684   73.3975   -8.3347 O.3     1  UNL1       -0.3775
     32 O          25.6076   75.8751  -11.5092 O.3     1  UNL1       -0.3792
     33 C          24.2392   74.4929  -10.0872 C.3     1  UNL1        0.1718
     34 C          22.9531   74.4778   -9.2606 C.3     1  UNL1        0.1968
     35 C          24.2987   75.7513  -10.9560 C.3     1  UNL1        0.1723
     36 C          22.7806   75.7892   -8.4930 C.3     1  UNL1        0.2706
     37 C          23.9926   77.0052  -10.1421 C.3     1  UNL1        0.1830
     38 H          24.2274   72.5460  -10.4226 H       1  UNL1        0.2105
     39 H          23.0779   72.5621   -8.8149 H       1  UNL1        0.2106
     40 H          25.8149   75.0833  -12.0296 H       1  UNL1        0.2106
     41 O          22.6124   78.8324  -10.6500 O.co2   1  UNL1       -0.5466
     42 O          24.4208   78.4891  -11.9957 O.co2   1  UNL1       -0.5466
     43 C          23.7292   78.1696  -11.0404 C.2     1  UNL1        0.0799
@<TRIPOS>UNITY_ATOM_ATTR
2 1
charge -1
26 1
charge -1
41 1
charge -1
@<TRIPOS>BOND
     1     1     4    1
     2     1    24    1
     3     1     2    1
     4     1     3    2
     5    25    28    1
     6    25    24    1
     7    25    26    1
     8    25    27    2
     9     6    11    1
    10     6    12    1
    11    29    36    1
    12    29    37    1
    13     7     9    1
    14     7    13    1
    15     8    10    1
    16     8    14    1
    17     4     5    1
    18    28    36    1
    19    30    33    1
    20    30    38    1
    21    31    34    1
    22    31    39    1
    23    32    35    1
    24    32    40    1
    25    41    43   ar
    26    15    19    2
    27    42    43   ar
    28    16    22    2
    29    17    12    1
    30    17    19   ar
    31    17    20   ar
    32    18    19   ar
    33    18    22   ar
    34    18    23    1
    35     9    10    1
    36     9    11    1
    37    10    12    1
    38    11     5    1
    39    33    34    1
    40    33    35    1
    41    34    36    1
    42    35    37    1
    43    37    43    1
    44    20    21   ar
    45    21    22   ar
@<TRIPOS>MOLECULE
*****
 43 45 0 0 0
SMALL
GASTEIGER

@<TRIPOS>ATOM
      1 P          21.9023   73.4604   -5.7780 P.3     1  UNL1        0.2189
      2 O          22.1277   74.9880   -5.2938 O.co2   1  UNL1       -0.4371
      3 O          22.8952   72.9625   -6.7870 O.2     1  UNL1       -0.5170
      4 O          20.3523   73.4241   -6.2406 O.3     1  UNL1       -0.3112
      5 C          19.9661   74.1838   -7.3712 C.3     1  UNL1        0.1811
      6 O          19.6495   71.8829   -7.9904 O.3     1  UNL1       -0.3308
      7 O          17.9760   72.9160  -10.2539 O.3     1  UNL1       -0.3794
      8 O          16.1006   72.1201   -8.4413 O.3     1  UNL1       -0.3779
      9 C          18.1017   73.4149   -8.9221 C.3     1  UNL1        0.1713
     10 C          17.3661   72.5137   -7.9531 C.3     1  UNL1        0.1895
     11 C          19.5499   73.2350   -8.4878 C.3     1  UNL1        0.1764
     12 C          18.3286   71.3465   -7.8152 C.3     1  UNL1        0.2383
     13 H          17.0588   73.0203  -10.5534 H       1  UNL1        0.2105
     14 H          15.5246   72.8981   -8.5109 H       1  UNL1        0.2106
     15 O          16.0910   69.8935   -6.8885 O.2     1  UNL1       -0.2464
     16 O          18.1258   68.9788   -2.8553 O.2     1  UNL1       -0.2670
     17 N          18.2469   70.7182   -6.5270 N.ar    1  UNL1       -0.2551
     18 N          17.1062   69.4402   -4.8802 N.ar    1  UNL1       -0.2743
     19 C          17.0772   70.0122   -6.1589 C.ar    1  UNL1        0.3323
     20 C          19.3171   70.8031   -5.6448 C.ar    1  UNL1        0.0869
     21 C          19.3301   70.2525   -4.4293 C.ar    1  UNL1        0.0795
     22 C          18.1466   69.4980   -3.9671 C.ar    1  UNL1        0.2626
     23 H          16.3023   68.9453   -4.6008 H       1  UNL1        0.1734
     24 O          21.8857   72.6374   -4.3869 O.3     1  UNL1       -0.2703
     25 P          23.0624   72.3290   -3.3220 P.3     1  UNL1        0.2208
     26 O          24.2551   73.3173   -3.7921 O.co2   1  UNL1       -0.4371
     27 O          23.4545   70.8822   -3.2394 O.2     1  UNL1       -0.5170
     28 O          22.5342   72.9597   -1.9343 O.3     1  UNL1       -0.2858
     29 O          20.9753   74.7303   -1.7248 O.3     1  UNL1       -0.3226
     30 O          23.1008   75.0600    1.8024 O.3     1  UNL1       -0.3794
     31 O          24.4831   74.5253   -0.7151 O.3     1  UNL1       -0.3775
     32 O          20.4299   73.9124    1.8101 O.3     1  UNL1       -0.3792
     33 C          22.5134   74.3791    0.6937 C.3     1  UNL1        0.1718
     34 C          23.1163   74.9064   -0.6086 C.3     1  UNL1        0.1968
     35 C          21.0053   74.6376    0.7250 C.3     1  UNL1        0.1723
     36 C          22.3539   74.3702   -1.8210 C.3     1  UNL1        0.2706
     37 C          20.3362   74.1890   -0.5709 C.3     1  UNL1        0.1830
     38 H          24.0594   74.9101    1.8031 H       1  UNL1        0.2105
     39 H          24.9729   74.8621    0.0512 H       1  UNL1        0.2106
     40 H          20.8472   74.1885    2.6410 H       1  UNL1        0.2106
     41 O          18.9627   76.0900   -0.6080 O.co2   1  UNL1       -0.5466
     42 O          17.9366   74.0617   -0.7885 O.co2   1  UNL1       -0.5466
     43 C          18.9490   74.7353   -0.6683 C.2     1  UNL1        0.0799
@<TRIPOS>UNITY_ATOM_ATTR
2 1
charge -1
26 1
charge -1
41 1
charge -1
@<TRIPOS>BOND
     1     1     4    1
     2     1    24    1
     3     1     2    1
     4     1     3    2
     5    25    28    1
     6    25    24    1
     7    25    26    1
     8    25    27    2
     9     6    11    1
    10     6    12    1
    11    29    36    1
    12    29    37    1
    13     7     9    1
    14     7    13    1
    15     8    10    1
    16     8    14    1
    17     4     5    1
    18    28    36    1
    19    30    33    1
    20    30    38    1
    21    31    34    1
    22    31    39    1
    23    32    35    1
    24    32    40    1
    25    41    43   ar
    26    15    19    2
    27    42    43   ar
    28    16    22    2
    29    17    12    1
    30    17    19   ar
    31    17    20   ar
    32    18    19   ar
    33    18    22   ar
    34    18    23    1
    35     9    10    1
    36     9    11    1
    37    10    12    1
    38    11     5    1
    39    33    34    1
    40    33    35    1
    41    34    36    1
    42    35    37    1
    43    37    43    1
    44    20    21   ar
    45    21    22   ar
@<TRIPOS>MOLECULE
*****
 43 45 0 0 0
SMALL
GASTEIGER

@<TRIPOS>ATOM
      1 P          22.0872   71.0227   -2.6234 P.3     1  UNL1        0.2189
      2 O          23.3653   71.3938   -3.5440 O.co2   1  UNL1       -0.4371
      3 O          21.5490   69.6352   -2.8161 O.2     1  UNL1       -0.5170
      4 O          21.0432   72.2265   -2.9043 O.3     1  UNL1       -0.3112
      5 C          21.3066   73.1135   -3.9760 C.3     1  UNL1        0.1811
      6 O          20.2418   74.5811   -5.5540 O.3     1  UNL1       -0.3308
      7 O          18.0022   72.5881   -5.6140 O.3     1  UNL1       -0.3794
      8 O          19.3733   72.0128   -7.8999 O.3     1  UNL1       -0.3779
      9 C          19.4074   72.3651   -5.4943 C.3     1  UNL1        0.1713
     10 C          20.0891   72.5890   -6.8274 C.3     1  UNL1        0.1895
     11 C          19.9904   73.4868   -4.6458 C.3     1  UNL1        0.1764
     12 C          20.1389   74.1054   -6.9054 C.3     1  UNL1        0.2383
     13 H          17.6074   71.8837   -6.1522 H       1  UNL1        0.2105
     14 H          19.3706   71.0469   -7.8048 H       1  UNL1        0.2106
     15 O          22.6377   72.7944   -7.0224 O.2     1  UNL1       -0.2464
     16 O          24.4013   76.0130   -9.8107 O.2     1  UNL1       -0.2670
     17 N          21.2684   74.5788   -7.6544 N.ar    1  UNL1       -0.2551
     18 N          23.5140   74.3992   -8.4102 N.ar    1  UNL1       -0.2743
     19 C          22.4783   73.8453   -7.6463 C.ar    1  UNL1        0.3323
     20 C          21.1709   75.7555   -8.3871 C.ar    1  UNL1        0.0869
     21 C          22.1667   76.2709   -9.1105 C.ar    1  UNL1        0.0795
     22 C          23.4649   75.5666   -9.1548 C.ar    1  UNL1        0.2626
     23 H          24.3668   73.9074   -8.4183 H       1  UNL1        0.1734
     24 O          22.6130   71.3393   -1.1280 O.3     1  UNL1       -0.2703
     25 P          22.5217   70.4741    0.2346 P.3     1  UNL1        0.2208
     26 O          23.8904   69.6100    0.2165 O.co2   1  UNL1       -0.4371
     27 O          21.2723   69.6509    0.3589 O.2     1  UNL1       -0.5170
     28 O          22.7350   71.5499    1.4177 O.3     1  UNL1       -0.2858
     29 O          21.9748   72.3423    3.5161 O.3     1  UNL1       -0.3226
     30 O          21.1638   75.5620    1.0577 O.3     1  UNL1       -0.3794
     31 O          20.6151   72.8372    0.1585 O.3     1  UNL1       -0.3775
     32 O          23.4377   75.6440    2.8671 O.3     1  UNL1       -0.3792
     33 C          21.8807   74.4107    1.5033 C.3     1  UNL1        0.1718
     34 C          20.9535   73.1951    1.4935 C.3     1  UNL1        0.1968
     35 C          22.3823   74.6861    2.9226 C.3     1  UNL1        0.1723
     36 C          21.6141   71.9976    2.1780 C.3     1  UNL1        0.2706
     37 C          22.9108   73.4159    3.5829 C.3     1  UNL1        0.1830
     38 H          20.8353   75.4102    0.1575 H       1  UNL1        0.2105
     39 H          20.1957   73.5925   -0.2819 H       1  UNL1        0.2106
     40 H          23.1145   76.4573    2.4487 H       1  UNL1        0.2106
     41 O          24.2192   74.3178    5.3080 O.co2   1  UNL1       -0.5466
     42 O          22.3207   73.2095    5.9133 O.co2   1  UNL1       -0.5466
     43 C          23.0871   73.6162    5.0530 C.2     1  UNL1        0.0799
@<TRIPOS>UNITY_ATOM_ATTR
2 1
charge -1
26 1
charge -1
41 1
charge -1
@<TRIPOS>BOND
     1     1     4    1
     2     1    24    1
     3     1     2    1
     4     1     3    2
     5    25    28    1
     6    25    24    1
     7    25    26    1
     8    25    27    2
     9     6    11    1
    10     6    12    1
    11    29    36    1
    12    29    37    1
    13     7     9    1
    14     7    13    1
    15     8    10    1
    16     8    14    1
    17     4     5    1
    18    28    36    1
    19    30    33    1
    20    30    38    1
    21    31    34    1
    22    31    39    1
    23    32    35    1
    24    32    40    1
    25    41    43   ar
    26    15    19    2
    27    42    43   ar
    28    16    22    2
    29    17    12    1
    30    17    19   ar
    31    17    20   ar
    32    18    19   ar
    33    18    22   ar
    34    18    23    1
    35     9    10    1
    36     9    11    1
    37    10    12    1
    38    11     5    1
    39    33    34    1
    40    33    35    1
    41    34    36    1
    42    35    37    1
    43    37    43    1
    44    20    21   ar
    45    21    22   ar
@<TRIPOS>MOLECULE
*****
 43 45 0 0 0
SMALL
GASTEIGER

@<TRIPOS>ATOM
      1 P          21.3530   72.9143   -5.8232 P.3     1  UNL1        0.2189
      2 O          20.1405   73.8970   -5.3952 O.co2   1  UNL1       -0.4371
      3 O          22.5883   73.6096   -6.3155 O.2     1  UNL1       -0.5170
      4 O          20.6671   71.8808   -6.8621 O.3     1  UNL1       -0.3112
      5 C          19.4584   71.2466   -6.4862 C.3     1  UNL1        0.1811
      6 O          17.2852   71.0131   -7.4864 O.3     1  UNL1       -0.3308
      7 O          18.7079   70.9874  -10.1259 O.3     1  UNL1       -0.3794
      8 O          17.7671   73.5428   -9.9809 O.3     1  UNL1       -0.3779
      9 C          19.0101   71.7286   -8.9437 C.3     1  UNL1        0.1713
     10 C          18.0228   72.8632   -8.7696 C.3     1  UNL1        0.1895
     11 C          18.6965   70.8463   -7.7430 C.3     1  UNL1        0.1764
     12 C          16.7992   72.1375   -8.2366 C.3     1  UNL1        0.2383
     13 H          18.9002   71.5307  -10.9066 H       1  UNL1        0.2105
     14 H          18.5762   73.9885  -10.2786 H       1  UNL1        0.2106
     15 O          14.8529   73.9736   -9.1403 O.2     1  UNL1       -0.2464
     16 O          13.8061   75.2602   -4.8400 O.2     1  UNL1       -0.2670
     17 N          16.0035   72.9651   -7.3747 N.ar    1  UNL1       -0.2551
     18 N          14.3341   74.6134   -6.9977 N.ar    1  UNL1       -0.2743
     19 C          15.0535   73.8544   -7.9302 C.ar    1  UNL1        0.3323
     20 C          16.1666   72.8899   -5.9968 C.ar    1  UNL1        0.0869
     21 C          15.4734   73.6197   -5.1206 C.ar    1  UNL1        0.0795
     22 C          14.4613   74.5742   -5.6186 C.ar    1  UNL1        0.2626
     23 H          13.6682   75.2413   -7.3607 H       1  UNL1        0.1734
     24 O          21.5709   72.0099   -4.5013 O.3     1  UNL1       -0.2703
     25 P          22.8159   71.9137   -3.4745 P.3     1  UNL1        0.2208
     26 O          23.8628   73.0009   -4.0596 O.co2   1  UNL1       -0.4371
     27 O          23.3814   70.5315   -3.3201 O.2     1  UNL1       -0.5170
     28 O          22.2695   72.5701   -2.1059 O.3     1  UNL1       -0.2858
     29 O          23.1775   74.1018   -0.5443 O.3     1  UNL1       -0.3226
     30 O          21.1789   71.4647    1.9294 O.3     1  UNL1       -0.3794
     31 O          22.7398   70.4781   -0.3344 O.3     1  UNL1       -0.3775
     32 O          20.0525   74.0873    1.3782 O.3     1  UNL1       -0.3792
     33 C          21.4123   72.2062    0.7320 C.3     1  UNL1        0.1718
     34 C          22.7696   71.8173    0.1455 C.3     1  UNL1        0.1968
     35 C          21.3923   73.6948    1.0863 C.3     1  UNL1        0.1723
     36 C          23.1565   72.7496   -1.0034 C.3     1  UNL1        0.2706
     37 C          21.9104   74.5490   -0.0672 C.3     1  UNL1        0.1830
     38 H          21.1872   70.5154    1.7288 H       1  UNL1        0.2105
     39 H          22.4947   69.8811    0.3894 H       1  UNL1        0.2106
     40 H          19.7108   73.5510    2.1107 H       1  UNL1        0.2106
     41 O          22.9290   76.6094   -0.5349 O.co2   1  UNL1       -0.5466
     42 O          21.8251   76.4219    1.4513 O.co2   1  UNL1       -0.5466
     43 C          22.1971   75.9418    0.3911 C.2     1  UNL1        0.0799
@<TRIPOS>UNITY_ATOM_ATTR
2 1
charge -1
26 1
charge -1
41 1
charge -1
@<TRIPOS>BOND
     1     1     4    1
     2     1    24    1
     3     1     2    1
     4     1     3    2
     5    25    28    1
     6    25    24    1
     7    25    26    1
     8    25    27    2
     9     6    11    1
    10     6    12    1
    11    29    36    1
    12    29    37    1
    13     7     9    1
    14     7    13    1
    15     8    10    1
    16     8    14    1
    17     4     5    1
    18    28    36    1
    19    30    33    1
    20    30    38    1
    21    31    34    1
    22    31    39    1
    23    32    35    1
    24    32    40    1
    25    41    43   ar
    26    15    19    2
    27    42    43   ar
    28    16    22    2
    29    17    12    1
    30    17    19   ar
    31    17    20   ar
    32    18    19   ar
    33    18    22   ar
    34    18    23    1
    35     9    10    1
    36     9    11    1
    37    10    12    1
    38    11     5    1
    39    33    34    1
    40    33    35    1
    41    34    36    1
    42    35    37    1
    43    37    43    1
    44    20    21   ar
    45    21    22   ar
@<TRIPOS>MOLECULE
*****
 43 45 0 0 0
SMALL
GASTEIGER

@<TRIPOS>ATOM
      1 P          22.5973   72.8687   -3.3180 P.3     1  UNL1        0.2189
      2 O          23.8815   72.5679   -4.2556 O.co2   1  UNL1       -0.4371
      3 O          22.7433   72.4404   -1.8872 O.2     1  UNL1       -0.5170
      4 O          21.3621   72.2071   -4.1269 O.3     1  UNL1       -0.3112
      5 C          20.6424   71.1515   -3.5169 C.3     1  UNL1        0.1811
      6 O          18.7448   72.0986   -4.6483 O.3     1  UNL1       -0.3308
      7 O          17.0792   70.9086   -2.4572 O.3     1  UNL1       -0.3794
      8 O          16.7278   69.1382   -4.5013 O.3     1  UNL1       -0.3779
      9 C          18.2539   70.3908   -3.0821 C.3     1  UNL1        0.1713
     10 C          17.9281   69.8817   -4.4702 C.3     1  UNL1        0.1895
     11 C          19.1813   71.5606   -3.3813 C.3     1  UNL1        0.1764
     12 C          17.8373   71.1724   -5.2663 C.3     1  UNL1        0.2383
     13 H          16.4712   70.1794   -2.2564 H       1  UNL1        0.2105
     14 H          16.8367   68.3264   -3.9807 H       1  UNL1        0.2106
     15 O          16.0574   70.4093   -7.3220 O.2     1  UNL1       -0.2464
     16 O          19.3914   70.5272  -10.5023 O.2     1  UNL1       -0.2670
     17 N          18.2136   70.9964   -6.6404 N.ar    1  UNL1       -0.2551
     18 N          17.7198   70.4678   -8.9038 N.ar    1  UNL1       -0.2743
     19 C          17.2423   70.6110   -7.5944 C.ar    1  UNL1        0.3323
     20 C          19.5304   71.2063   -7.0313 C.ar    1  UNL1        0.0869
     21 C          19.9706   71.0659   -8.2832 C.ar    1  UNL1        0.0795
     22 C          19.0198   70.6648   -9.3407 C.ar    1  UNL1        0.2626
     23 H          17.0624   70.1981   -9.5853 H       1  UNL1        0.1734
     24 O          22.3599   74.4541   -3.5253 O.3     1  UNL1       -0.2703
     25 P          23.1277   75.5294   -4.4569 P.3     1  UNL1        0.2208
     26 O          22.1413   76.8126   -4.4305 O.co2   1  UNL1       -0.4371
     27 O          23.4544   75.0288   -5.8341 O.2     1  UNL1       -0.5170
     28 O          24.4090   75.9828   -3.5879 O.3     1  UNL1       -0.2858
     29 O          26.4700   75.1264   -4.3806 O.3     1  UNL1       -0.3226
     30 O          27.5826   76.7788   -0.7612 O.3     1  UNL1       -0.3794
     31 O          25.0999   75.2566   -0.9935 O.3     1  UNL1       -0.3775
     32 O          28.2277   78.1410   -3.2470 O.3     1  UNL1       -0.3792
     33 C          26.8202   76.6661   -1.9630 C.3     1  UNL1        0.1718
     34 C          26.1104   75.3123   -1.9937 C.3     1  UNL1        0.1968
     35 C          27.7823   76.7897   -3.1466 C.3     1  UNL1        0.1723
     36 C          25.4727   75.0599   -3.3606 C.3     1  UNL1        0.2706
     37 C          27.1053   76.4005   -4.4577 C.3     1  UNL1        0.1830
     38 H          26.9920   76.7031    0.0048 H       1  UNL1        0.2105
     39 H          25.4976   75.4162   -0.1235 H       1  UNL1        0.2106
     40 H          28.6603   78.4012   -2.4188 H       1  UNL1        0.2106
     41 O          28.0153   74.9630   -6.0723 O.co2   1  UNL1       -0.5466
     42 O          28.9264   77.0463   -5.9027 O.co2   1  UNL1       -0.5466
     43 C          28.1171   76.2059   -5.5397 C.2     1  UNL1        0.0799
@<TRIPOS>UNITY_ATOM_ATTR
2 1
charge -1
26 1
charge -1
41 1
charge -1
@<TRIPOS>BOND
     1     1     4    1
     2     1    24    1
     3     1     2    1
     4     1     3    2
     5    25    28    1
     6    25    24    1
     7    25    26    1
     8    25    27    2
     9     6    11    1
    10     6    12    1
    11    29    36    1
    12    29    37    1
    13     7     9    1
    14     7    13    1
    15     8    10    1
    16     8    14    1
    17     4     5    1
    18    28    36    1
    19    30    33    1
    20    30    38    1
    21    31    34    1
    22    31    39    1
    23    32    35    1
    24    32    40    1
    25    41    43   ar
    26    15    19    2
    27    42    43   ar
    28    16    22    2
    29    17    12    1
    30    17    19   ar
    31    17    20   ar
    32    18    19   ar
    33    18    22   ar
    34    18    23    1
    35     9    10    1
    36     9    11    1
    37    10    12    1
    38    11     5    1
    39    33    34    1
    40    33    35    1
    41    34    36    1
    42    35    37    1
    43    37    43    1
    44    20    21   ar
    45    21    22   ar
@<TRIPOS>MOLECULE
*****
 43 45 0 0 0
SMALL
GASTEIGER

@<TRIPOS>ATOM
      1 P          22.2391   73.1859   -3.9775 P.3     1  UNL1        0.2189
      2 O          23.7045   72.5138   -4.1184 O.co2   1  UNL1       -0.4371
      3 O          21.9439   73.7859   -2.6341 O.2     1  UNL1       -0.5170
      4 O          21.2284   72.0197   -4.4636 O.3     1  UNL1       -0.3112
      5 C          20.6385   71.1847   -3.4842 C.3     1  UNL1        0.1811
      6 O          18.7226   72.1647   -4.5551 O.3     1  UNL1       -0.3308
      7 O          17.0866   70.8567   -2.4094 O.3     1  UNL1       -0.3794
      8 O          16.7355   69.1805   -4.5315 O.3     1  UNL1       -0.3779
      9 C          18.2611   70.3806   -3.0670 C.3     1  UNL1        0.1713
     10 C          17.9289   69.9338   -4.4749 C.3     1  UNL1        0.1895
     11 C          19.1747   71.5724   -3.3182 C.3     1  UNL1        0.1764
     12 C          17.8190   71.2594   -5.2088 C.3     1  UNL1        0.2383
     13 H          16.4874   70.1129   -2.2383 H       1  UNL1        0.2105
     14 H          16.8566   68.3464   -4.0503 H       1  UNL1        0.2106
     15 O          16.1076   71.8880   -7.3657 O.2     1  UNL1       -0.2464
     16 O          19.3321   70.8083  -10.4770 O.2     1  UNL1       -0.2670
     17 N          18.1857   71.1516   -6.5926 N.ar    1  UNL1       -0.2551
     18 N          17.7149   71.3487   -8.9133 N.ar    1  UNL1       -0.2743
     19 C          17.2512   71.4922   -7.5989 C.ar    1  UNL1        0.3323
     20 C          19.4580   70.7148   -6.9410 C.ar    1  UNL1        0.0869
     21 C          19.8855   70.5832   -8.1982 C.ar    1  UNL1        0.0795
     22 C          18.9706   70.9175   -9.3093 C.ar    1  UNL1        0.2626
     23 H          17.0814   71.5779   -9.6313 H       1  UNL1        0.1734
     24 O          22.2014   74.2351   -5.2065 O.3     1  UNL1       -0.2703
     25 P          21.9596   74.0081   -6.7888 P.3     1  UNL1        0.2208
     26 O          20.3466   74.0269   -6.9230 O.co2   1  UNL1       -0.4371
     27 O          22.6117   72.7735   -7.3405 O.2     1  UNL1       -0.5170
     28 O          22.4416   75.3847   -7.4781 O.3     1  UNL1       -0.2858
     29 O          24.3376   75.0956   -8.8677 O.3     1  UNL1       -0.3226
     30 O          23.9267   79.2064   -8.8508 O.3     1  UNL1       -0.3794
     31 O          23.5845   77.6739   -6.3874 O.3     1  UNL1       -0.3775
     32 O          23.1112   77.6680  -11.1787 O.3     1  UNL1       -0.3792
     33 C          23.4786   77.8518   -8.8047 C.3     1  UNL1        0.1718
     34 C          24.1053   77.1462   -7.6018 C.3     1  UNL1        0.1968
     35 C          23.9060   77.1677  -10.1052 C.3     1  UNL1        0.1723
     36 C          23.8344   75.6417   -7.6478 C.3     1  UNL1        0.2706
     37 C          23.7217   75.6550  -10.0256 C.3     1  UNL1        0.1830
     38 H          23.6665   79.6613   -8.0343 H       1  UNL1        0.2105
     39 H          23.7527   78.6282   -6.3516 H       1  UNL1        0.2106
     40 H          23.2194   78.6300  -11.2401 H       1  UNL1        0.2106
     41 O          24.1402   73.6506  -11.1695 O.co2   1  UNL1       -0.5466
     42 O          25.1822   75.5260  -11.9417 O.co2   1  UNL1       -0.5466
     43 C          24.4355   74.9739  -11.1475 C.2     1  UNL1        0.0799
@<TRIPOS>UNITY_ATOM_ATTR
2 1
charge -1
26 1
charge -1
41 1
charge -1
@<TRIPOS>BOND
     1     1     4    1
     2     1    24    1
     3     1     2    1
     4     1     3    2
     5    25    28    1
     6    25    24    1
     7    25    26    1
     8    25    27    2
     9     6    11    1
    10     6    12    1
    11    29    36    1
    12    29    37    1
    13     7     9    1
    14     7    13    1
    15     8    10    1
    16     8    14    1
    17     4     5    1
    18    28    36    1
    19    30    33    1
    20    30    38    1
    21    31    34    1
    22    31    39    1
    23    32    35    1
    24    32    40    1
    25    41    43   ar
    26    15    19    2
    27    42    43   ar
    28    16    22    2
    29    17    12    1
    30    17    19   ar
    31    17    20   ar
    32    18    19   ar
    33    18    22   ar
    34    18    23    1
    35     9    10    1
    36     9    11    1
    37    10    12    1
    38    11     5    1
    39    33    34    1
    40    33    35    1
    41    34    36    1
    42    35    37    1
    43    37    43    1
    44    20    21   ar
    45    21    22   ar
@<TRIPOS>MOLECULE
*****
 43 45 0 0 0
SMALL
GASTEIGER

@<TRIPOS>ATOM
      1 P          22.4556   71.3048   -2.8473 P.3     1  UNL1        0.2189
      2 O          23.5536   72.1930   -3.6373 O.co2   1  UNL1       -0.4371
      3 O          22.2929   69.9015   -3.3534 O.2     1  UNL1       -0.5170
      4 O          21.1221   72.2207   -2.8750 O.3     1  UNL1       -0.3112
      5 C          20.0430   71.8192   -3.6990 C.3     1  UNL1        0.1811
      6 O          17.8084   71.8255   -2.8134 O.3     1  UNL1       -0.3308
      7 O          18.1721   68.8811   -2.3777 O.3     1  UNL1       -0.3794
      8 O          16.6844   68.9662   -4.6614 O.3     1  UNL1       -0.3779
      9 C          18.6538   69.7036   -3.4408 C.3     1  UNL1        0.1713
     10 C          17.5205   70.0681   -4.3762 C.3     1  UNL1        0.1895
     11 C          19.0304   71.0571   -2.8539 C.3     1  UNL1        0.1764
     12 C          16.8056   71.1580   -3.5957 C.3     1  UNL1        0.2383
     13 H          17.9251   68.0107   -2.7283 H       1  UNL1        0.2105
     14 H          17.1854   68.3006   -5.1592 H       1  UNL1        0.2106
     15 O          14.7677   72.9293   -2.7675 O.2     1  UNL1       -0.2464
     16 O          14.4284   74.7935   -6.9692 O.2     1  UNL1       -0.2670
     17 N          16.1671   72.1167   -4.4526 N.ar    1  UNL1       -0.2551
     18 N          14.5999   73.8554   -4.8612 N.ar    1  UNL1       -0.2743
     19 C          15.1541   72.9595   -3.9374 C.ar    1  UNL1        0.3323
     20 C          16.5463   72.2162   -5.7858 C.ar    1  UNL1        0.0869
     21 C          16.0090   73.0752   -6.6542 C.ar    1  UNL1        0.0795
     22 C          14.9435   73.9909   -6.1966 C.ar    1  UNL1        0.2626
     23 H          13.8913   74.4511   -4.5263 H       1  UNL1        0.1734
     24 O          22.9395   71.4138   -1.3088 O.3     1  UNL1       -0.2703
     25 P          22.4440   70.6335    0.0175 P.3     1  UNL1        0.2208
     26 O          23.6093   69.5359    0.2579 O.co2   1  UNL1       -0.4371
     27 O          21.0624   70.0556   -0.0880 O.2     1  UNL1       -0.5170
     28 O          22.6347   71.6985    1.2142 O.3     1  UNL1       -0.2858
     29 O          21.8062   72.4550    3.2999 O.3     1  UNL1       -0.3226
     30 O          21.2170   75.7718    0.9084 O.3     1  UNL1       -0.3794
     31 O          20.6190   73.0953   -0.0982 O.3     1  UNL1       -0.3775
     32 O          23.4071   75.7213    2.8194 O.3     1  UNL1       -0.3792
     33 C          21.8737   74.5836    1.3498 C.3     1  UNL1        0.1718
     34 C          20.9077   73.4019    1.2610 C.3     1  UNL1        0.1968
     35 C          22.3188   74.7995    2.7980 C.3     1  UNL1        0.1723
     36 C          21.4958   72.1625    1.9370 C.3     1  UNL1        0.2706
     37 C          22.7736   73.4929    3.4417 C.3     1  UNL1        0.1830
     38 H          20.9251   75.6580   -0.0099 H       1  UNL1        0.2105
     39 H          20.2458   73.8774   -0.5333 H       1  UNL1        0.2106
     40 H          23.1308   76.5572    2.4123 H       1  UNL1        0.2106
     41 O          22.1849   72.6749    5.5597 O.co2   1  UNL1       -0.5466
     42 O          23.5296   74.5151    5.4923 O.co2   1  UNL1       -0.5466
     43 C          22.8891   73.6437    4.9237 C.2     1  UNL1        0.0799
@<TRIPOS>UNITY_ATOM_ATTR
2 1
charge -1
26 1
charge -1
41 1
charge -1
@<TRIPOS>BOND
     1     1     4    1
     2     1    24    1
     3     1     2    1
     4     1     3    2
     5    25    28    1
     6    25    24    1
     7    25    26    1
     8    25    27    2
     9     6    11    1
    10     6    12    1
    11    29    36    1
    12    29    37    1
    13     7     9    1
    14     7    13    1
    15     8    10    1
    16     8    14    1
    17     4     5    1
    18    28    36    1
    19    30    33    1
    20    30    38    1
    21    31    34    1
    22    31    39    1
    23    32    35    1
    24    32    40    1
    25    41    43   ar
    26    15    19    2
    27    42    43   ar
    28    16    22    2
    29    17    12    1
    30    17    19   ar
    31    17    20   ar
    32    18    19   ar
    33    18    22   ar
    34    18    23    1
    35     9    10    1
    36     9    11    1
    37    10    12    1
    38    11     5    1
    39    33    34    1
    40    33    35    1
    41    34    36    1
    42    35    37    1
    43    37    43    1
    44    20    21   ar
    45    21    22   ar
@<TRIPOS>MOLECULE
*****
 43 45 0 0 0
SMALL
GASTEIGER

@<TRIPOS>ATOM
      1 P          22.5070   74.4386   -7.0620 P.3     1  UNL1        0.2189
      2 O          23.7061   75.3685   -7.6246 O.co2   1  UNL1       -0.4371
      3 O          22.7718   72.9625   -7.1152 O.2     1  UNL1       -0.5170
      4 O          21.2051   74.9487   -7.8761 O.3     1  UNL1       -0.3112
      5 C          19.9410   74.4090   -7.5364 C.3     1  UNL1        0.1811
      6 O          19.6101   72.0922   -8.0844 O.3     1  UNL1       -0.3308
      7 O          17.9236   73.0648  -10.3650 O.3     1  UNL1       -0.3794
      8 O          16.0589   72.3314   -8.5154 O.3     1  UNL1       -0.3779
      9 C          18.0616   73.6026   -9.0496 C.3     1  UNL1        0.1713
     10 C          17.3296   72.7339   -8.0487 C.3     1  UNL1        0.1895
     11 C          19.5123   73.4292   -8.6211 C.3     1  UNL1        0.1764
     12 C          18.2883   71.5670   -7.8833 C.3     1  UNL1        0.2383
     13 H          17.0046   73.1642  -10.6605 H       1  UNL1        0.2105
     14 H          15.4856   73.1096   -8.6038 H       1  UNL1        0.2106
     15 O          16.1751   69.9167   -6.9962 O.2     1  UNL1       -0.2464
     16 O          18.1073   69.3609   -2.8487 O.2     1  UNL1       -0.2670
     17 N          18.2139   70.9777   -6.5764 N.ar    1  UNL1       -0.2551
     18 N          17.1390   69.6423   -4.9310 N.ar    1  UNL1       -0.2743
     19 C          17.1089   70.1642   -6.2309 C.ar    1  UNL1        0.3323
     20 C          19.2277   71.2057   -5.6540 C.ar    1  UNL1        0.0869
     21 C          19.2425   70.7012   -4.4187 C.ar    1  UNL1        0.0795
     22 C          18.1246   69.8413   -3.9779 C.ar    1  UNL1        0.2626
     23 H          16.3793   69.0745   -4.6667 H       1  UNL1        0.1734
     24 O          22.2595   75.0252   -5.5762 O.3     1  UNL1       -0.2703
     25 P          23.3010   75.4343   -4.4094 P.3     1  UNL1        0.2208
     26 O          23.4487   74.0701   -3.5505 O.co2   1  UNL1       -0.4371
     27 O          22.8842   76.6304   -3.6035 O.2     1  UNL1       -0.5170
     28 O          24.7178   75.5959   -5.1637 O.3     1  UNL1       -0.2858
     29 O          26.5304   76.1850   -3.7578 O.3     1  UNL1       -0.3226
     30 O          28.1909   76.6547   -7.5115 O.3     1  UNL1       -0.3794
     31 O          25.4707   77.5724   -6.9700 O.3     1  UNL1       -0.3775
     32 O          28.8687   74.3349   -5.8960 O.3     1  UNL1       -0.3792
     33 C          27.3298   76.0768   -6.5304 C.3     1  UNL1        0.1718
     34 C          26.3949   77.1507   -5.9736 C.3     1  UNL1        0.1968
     35 C          28.2040   75.5012   -5.4140 C.3     1  UNL1        0.1723
     36 C          25.6189   76.6271   -4.7643 C.3     1  UNL1        0.2706
     37 C          27.3701   75.1185   -4.1947 C.3     1  UNL1        0.1830
     38 H          27.6574   77.0272   -8.2311 H       1  UNL1        0.2105
     39 H          25.9563   77.9056   -7.7405 H       1  UNL1        0.2106
     40 H          29.4029   74.5647   -6.6723 H       1  UNL1        0.2106
     41 O          27.6231   75.2573   -1.8670 O.co2   1  UNL1       -0.5466
     42 O          29.3676   74.3918   -3.0531 O.co2   1  UNL1       -0.5466
     43 C          28.2455   74.8735   -3.0090 C.2     1  UNL1        0.0799
@<TRIPOS>UNITY_ATOM_ATTR
2 1
charge -1
26 1
charge -1
41 1
charge -1
@<TRIPOS>BOND
     1     1     4    1
     2     1    24    1
     3     1     2    1
     4     1     3    2
     5    25    28    1
     6    25    24    1
     7    25    26    1
     8    25    27    2
     9     6    11    1
    10     6    12    1
    11    29    36    1
    12    29    37    1
    13     7     9    1
    14     7    13    1
    15     8    10    1
    16     8    14    1
    17     4     5    1
    18    28    36    1
    19    30    33    1
    20    30    38    1
    21    31    34    1
    22    31    39    1
    23    32    35    1
    24    32    40    1
    25    41    43   ar
    26    15    19    2
    27    42    43   ar
    28    16    22    2
    29    17    12    1
    30    17    19   ar
    31    17    20   ar
    32    18    19   ar
    33    18    22   ar
    34    18    23    1
    35     9    10    1
    36     9    11    1
    37    10    12    1
    38    11     5    1
    39    33    34    1
    40    33    35    1
    41    34    36    1
    42    35    37    1
    43    37    43    1
    44    20    21   ar
    45    21    22   ar
@<TRIPOS>MOLECULE
*****
 43 45 0 0 0
SMALL
GASTEIGER

@<TRIPOS>ATOM
      1 P          21.5106   72.9642   -5.8763 P.3     1  UNL1        0.2189
      2 O          20.3903   73.9842   -5.3074 O.co2   1  UNL1       -0.4371
      3 O          22.7553   73.6184   -6.4004 O.2     1  UNL1       -0.5170
      4 O          20.6997   72.0474   -6.9346 O.3     1  UNL1       -0.3112
      5 C          19.5373   71.3712   -6.4918 C.3     1  UNL1        0.1811
      6 O          17.3176   71.1345   -7.3831 O.3     1  UNL1       -0.3308
      7 O          18.6123   71.0542  -10.0865 O.3     1  UNL1       -0.3794
      8 O          17.6939   73.6177   -9.9417 O.3     1  UNL1       -0.3779
      9 C          18.9749   71.8137   -8.9332 C.3     1  UNL1        0.1713
     10 C          18.0034   72.9575   -8.7322 C.3     1  UNL1        0.1895
     11 C          18.7140   70.9543   -7.7037 C.3     1  UNL1        0.1764
     12 C          16.8026   72.2490   -8.1289 C.3     1  UNL1        0.2383
     13 H          18.7703   71.5827  -10.8849 H       1  UNL1        0.2105
     14 H          18.4904   74.0530  -10.2853 H       1  UNL1        0.2106
     15 O          16.1621   71.5964   -5.4567 O.2     1  UNL1       -0.2464
     16 O          13.9239   75.5764   -4.8291 O.2     1  UNL1       -0.2670
     17 N          16.0536   73.0964   -7.2447 N.ar    1  UNL1       -0.2551
     18 N          15.0471   73.5788   -5.1470 N.ar    1  UNL1       -0.2743
     19 C          15.7860   72.6743   -5.9209 C.ar    1  UNL1        0.3323
     20 C          15.5944   74.3300   -7.6899 C.ar    1  UNL1        0.0869
     21 C          14.8914   75.1814   -6.9405 C.ar    1  UNL1        0.0795
     22 C          14.5682   74.8163   -5.5456 C.ar    1  UNL1        0.2626
     23 H          14.8466   73.3062   -4.2224 H       1  UNL1        0.1734
     24 O          21.7505   71.9588   -4.6335 O.3     1  UNL1       -0.2703
     25 P          22.8945   71.9370   -3.4914 P.3     1  UNL1        0.2208
     26 O          23.9409   73.0649   -3.9946 O.co2   1  UNL1       -0.4371
     27 O          23.5062   70.5859   -3.2583 O.2     1  UNL1       -0.5170
     28 O          22.1895   72.5857   -2.1935 O.3     1  UNL1       -0.2858
     29 O          21.5063   71.2008   -0.3978 O.3     1  UNL1       -0.3226
     30 O          19.3480   74.6474    0.3304 O.3     1  UNL1       -0.3794
     31 O          19.6118   73.6121   -2.3886 O.3     1  UNL1       -0.3775
     32 O          21.6929   74.0282    1.9331 O.3     1  UNL1       -0.3792
     33 C          20.4588   73.8785   -0.1308 C.3     1  UNL1        0.1718
     34 C          19.9931   72.9052   -1.2140 C.3     1  UNL1        0.1968
     35 C          21.0314   73.1115    1.0633 C.3     1  UNL1        0.1723
     36 C          21.0995   71.9107   -1.5683 C.3     1  UNL1        0.2706
     37 C          22.0350   72.0527    0.6160 C.3     1  UNL1        0.1830
     38 H          18.9676   75.1436   -0.4116 H       1  UNL1        0.2105
     39 H          18.9102   74.2452   -2.1711 H       1  UNL1        0.2106
     40 H          21.0651   74.7075    2.2249 H       1  UNL1        0.2106
     41 O          22.8932   69.9637    1.2492 O.co2   1  UNL1       -0.5466
     42 O          22.1149   71.3158    2.9121 O.co2   1  UNL1       -0.5466
     43 C          22.3356   71.1027    1.7293 C.2     1  UNL1        0.0799
@<TRIPOS>UNITY_ATOM_ATTR
2 1
charge -1
26 1
charge -1
41 1
charge -1
@<TRIPOS>BOND
     1     1     4    1
     2     1    24    1
     3     1     2    1
     4     1     3    2
     5    25    28    1
     6    25    24    1
     7    25    26    1
     8    25    27    2
     9     6    11    1
    10     6    12    1
    11    29    36    1
    12    29    37    1
    13     7     9    1
    14     7    13    1
    15     8    10    1
    16     8    14    1
    17     4     5    1
    18    28    36    1
    19    30    33    1
    20    30    38    1
    21    31    34    1
    22    31    39    1
    23    32    35    1
    24    32    40    1
    25    41    43   ar
    26    15    19    2
    27    42    43   ar
    28    16    22    2
    29    17    12    1
    30    17    19   ar
    31    17    20   ar
    32    18    19   ar
    33    18    22   ar
    34    18    23    1
    35     9    10    1
    36     9    11    1
    37    10    12    1
    38    11     5    1
    39    33    34    1
    40    33    35    1
    41    34    36    1
    42    35    37    1
    43    37    43    1
    44    20    21   ar
    45    21    22   ar
@<TRIPOS>MOLECULE
*****
 43 45 0 0 0
SMALL
GASTEIGER

@<TRIPOS>ATOM
      1 P          22.8371   71.8911   -3.0065 P.3     1  UNL1        0.2189
      2 O          23.8672   73.1371   -2.9341 O.co2   1  UNL1       -0.4371
      3 O          23.4673   70.5652   -3.3170 O.2     1  UNL1       -0.5170
      4 O          21.6987   72.3880   -4.0434 O.3     1  UNL1       -0.3112
      5 C          21.8232   73.6760   -4.6179 C.3     1  UNL1        0.1811
      6 O          21.7218   72.4016   -6.6535 O.3     1  UNL1       -0.3308
      7 O          23.0045   74.7660   -7.9787 O.3     1  UNL1       -0.3794
      8 O          20.3806   75.0490   -8.6651 O.3     1  UNL1       -0.3779
      9 C          22.0455   74.7328   -6.9215 C.3     1  UNL1        0.1713
     10 C          20.6796   74.3690   -7.4640 C.3     1  UNL1        0.1895
     11 C          22.3649   73.5370   -6.0348 C.3     1  UNL1        0.1764
     12 C          20.8070   72.8676   -7.6581 C.3     1  UNL1        0.2383
     13 H          22.8208   75.5220   -8.5587 H       1  UNL1        0.2105
     14 H          20.3096   76.0007   -8.4888 H       1  UNL1        0.2106
     15 O          18.8648   73.5310   -5.7180 O.2     1  UNL1       -0.2464
     16 O          16.0335   70.1851   -7.1439 O.2     1  UNL1       -0.2670
     17 N          19.5534   72.1863   -7.5003 N.ar    1  UNL1       -0.2551
     18 N          17.4569   71.8633   -6.4294 N.ar    1  UNL1       -0.2743
     19 C          18.6479   72.5984   -6.4941 C.ar    1  UNL1        0.3323
     20 C          19.2307   71.1247   -8.3368 C.ar    1  UNL1        0.0869
     21 C          18.0915   70.4337   -8.2631 C.ar    1  UNL1        0.0795
     22 C          17.0916   70.7996   -7.2386 C.ar    1  UNL1        0.2626
     23 H          16.8117   72.1303   -5.7354 H       1  UNL1        0.1734
     24 O          22.0829   71.9603   -1.5785 O.3     1  UNL1       -0.2703
     25 P          21.6267   70.7895   -0.5613 P.3     1  UNL1        0.2208
     26 O          23.0158   70.0292   -0.2254 O.co2   1  UNL1       -0.4371
     27 O          20.5461   69.8952   -1.0965 O.2     1  UNL1       -0.5170
     28 O          21.2436   71.5594    0.8036 O.3     1  UNL1       -0.2858
     29 O          21.3836   73.8754    1.2785 O.3     1  UNL1       -0.3226
     30 O          21.9879   72.2137    5.0123 O.3     1  UNL1       -0.3794
     31 O          23.2598   71.0540    2.6518 O.3     1  UNL1       -0.3775
     32 O          19.4294   73.4250    4.3510 O.3     1  UNL1       -0.3792
     33 C          21.4507   72.2914    3.6920 C.3     1  UNL1        0.1718
     34 C          22.5923   72.3104    2.6752 C.3     1  UNL1        0.1968
     35 C          20.6271   73.5773    3.5915 C.3     1  UNL1        0.1723
     36 C          22.0702   72.6233    1.2722 C.3     1  UNL1        0.2706
     37 C          20.2515   73.8868    2.1453 C.3     1  UNL1        0.1830
     38 H          22.5155   71.4041    5.0998 H       1  UNL1        0.2105
     39 H          23.5934   70.8490    3.5389 H       1  UNL1        0.2106
     40 H          19.6544   73.2275    5.2736 H       1  UNL1        0.2106
     41 O          18.4529   75.3667    2.4219 O.co2   1  UNL1       -0.5466
     42 O          20.3976   76.2340    1.6064 O.co2   1  UNL1       -0.5466
     43 C          19.7445   75.2863    2.0167 C.2     1  UNL1        0.0799
@<TRIPOS>UNITY_ATOM_ATTR
2 1
charge -1
26 1
charge -1
41 1
charge -1
@<TRIPOS>BOND
     1     1     4    1
     2     1    24    1
     3     1     2    1
     4     1     3    2
     5    25    28    1
     6    25    24    1
     7    25    26    1
     8    25    27    2
     9     6    11    1
    10     6    12    1
    11    29    36    1
    12    29    37    1
    13     7     9    1
    14     7    13    1
    15     8    10    1
    16     8    14    1
    17     4     5    1
    18    28    36    1
    19    30    33    1
    20    30    38    1
    21    31    34    1
    22    31    39    1
    23    32    35    1
    24    32    40    1
    25    41    43   ar
    26    15    19    2
    27    42    43   ar
    28    16    22    2
    29    17    12    1
    30    17    19   ar
    31    17    20   ar
    32    18    19   ar
    33    18    22   ar
    34    18    23    1
    35     9    10    1
    36     9    11    1
    37    10    12    1
    38    11     5    1
    39    33    34    1
    40    33    35    1
    41    34    36    1
    42    35    37    1
    43    37    43    1
    44    20    21   ar
    45    21    22   ar
@<TRIPOS>MOLECULE
*****
 43 45 0 0 0
SMALL
GASTEIGER

@<TRIPOS>ATOM
      1 P          22.2492   71.3176   -2.9101 P.3     1  UNL1        0.2189
      2 O          23.5240   71.6950   -3.8329 O.co2   1  UNL1       -0.4371
      3 O          21.5593   70.0363   -3.2761 O.2     1  UNL1       -0.5170
      4 O          21.3298   72.6483   -2.9546 O.3     1  UNL1       -0.3112
      5 C          20.4452   72.8227   -4.0462 C.3     1  UNL1        0.1811
      6 O          20.0359   71.7158   -6.1402 O.3     1  UNL1       -0.3308
      7 O          22.7844   72.6107   -6.9379 O.3     1  UNL1       -0.3794
      8 O          21.1795   74.4174   -8.2012 O.3     1  UNL1       -0.3779
      9 C          21.8093   73.2861   -6.1432 C.3     1  UNL1        0.1713
     10 C          20.6939   73.8151   -7.0197 C.3     1  UNL1        0.1895
     11 C          21.0858   72.2439   -5.3012 C.3     1  UNL1        0.1764
     12 C          19.8851   72.5586   -7.2936 C.3     1  UNL1        0.2383
     13 H          23.2598   73.2562   -7.4847 H       1  UNL1        0.2105
     14 H          21.6871   75.2127   -7.9736 H       1  UNL1        0.2106
     15 O          18.0997   70.8619   -8.6756 O.2     1  UNL1       -0.2464
     16 O          14.5554   73.7262   -7.9850 O.2     1  UNL1       -0.2670
     17 N          18.4904   72.8366   -7.4897 N.ar    1  UNL1       -0.2551
     18 N          16.3364   72.2906   -8.3312 N.ar    1  UNL1       -0.2743
     19 C          17.6805   71.9182   -8.1988 C.ar    1  UNL1        0.3323
     20 C          17.9381   74.0060   -6.9814 C.ar    1  UNL1        0.0869
     21 C          16.6550   74.3472   -7.1156 C.ar    1  UNL1        0.0795
     22 C          15.7411   73.4429   -7.8439 C.ar    1  UNL1        0.2626
     23 H          15.7533   71.6680   -8.8229 H       1  UNL1        0.1734
     24 O          22.8619   71.3491   -1.4146 O.3     1  UNL1       -0.2703
     25 P          22.3709   70.6324   -0.0512 P.3     1  UNL1        0.2208
     26 O          23.5395   69.5505    0.2394 O.co2   1  UNL1       -0.4371
     27 O          20.9906   70.0467   -0.1259 O.2     1  UNL1       -0.5170
     28 O          22.5612   71.7542    1.0924 O.3     1  UNL1       -0.2858
     29 O          21.7861   72.4362    3.2239 O.3     1  UNL1       -0.3226
     30 O          21.0646   75.8082    0.9486 O.3     1  UNL1       -0.3794
     31 O          20.4814   73.1509   -0.1158 O.3     1  UNL1       -0.3775
     32 O          23.3144   75.7432    2.7885 O.3     1  UNL1       -0.3792
     33 C          21.7553   74.6201    1.3350 C.3     1  UNL1        0.1718
     34 C          20.8075   73.4240    1.2420 C.3     1  UNL1        0.1968
     35 C          22.2421   74.8029    2.7743 C.3     1  UNL1        0.1723
     36 C          21.4379   72.1769    1.8633 C.3     1  UNL1        0.2706
     37 C          22.7394   73.4869    3.3655 C.3     1  UNL1        0.1830
     38 H          20.7459   75.7152    0.0370 H       1  UNL1        0.2105
     39 H          20.0812   73.9381   -0.5164 H       1  UNL1        0.2106
     40 H          23.0111   76.5853    2.4145 H       1  UNL1        0.2106
     41 O          22.2986   72.5549    5.4723 O.co2   1  UNL1       -0.5466
     42 O          23.4895   74.4988    5.4234 O.co2   1  UNL1       -0.5466
     43 C          22.8990   73.5977    4.8469 C.2     1  UNL1        0.0799
@<TRIPOS>UNITY_ATOM_ATTR
2 1
charge -1
26 1
charge -1
41 1
charge -1
@<TRIPOS>BOND
     1     1     4    1
     2     1    24    1
     3     1     2    1
     4     1     3    2
     5    25    28    1
     6    25    24    1
     7    25    26    1
     8    25    27    2
     9     6    11    1
    10     6    12    1
    11    29    36    1
    12    29    37    1
    13     7     9    1
    14     7    13    1
    15     8    10    1
    16     8    14    1
    17     4     5    1
    18    28    36    1
    19    30    33    1
    20    30    38    1
    21    31    34    1
    22    31    39    1
    23    32    35    1
    24    32    40    1
    25    41    43   ar
    26    15    19    2
    27    42    43   ar
    28    16    22    2
    29    17    12    1
    30    17    19   ar
    31    17    20   ar
    32    18    19   ar
    33    18    22   ar
    34    18    23    1
    35     9    10    1
    36     9    11    1
    37    10    12    1
    38    11     5    1
    39    33    34    1
    40    33    35    1
    41    34    36    1
    42    35    37    1
    43    37    43    1
    44    20    21   ar
    45    21    22   ar
@<TRIPOS>MOLECULE
*****
 43 45 0 0 0
SMALL
GASTEIGER

@<TRIPOS>ATOM
      1 P          21.7191   72.9443   -5.0937 P.3     1  UNL1        0.2189
      2 O          20.9773   74.3824   -5.0705 O.co2   1  UNL1       -0.4371
      3 O          23.2056   73.0013   -5.2904 O.2     1  UNL1       -0.5170
      4 O          20.8956   72.1001   -6.2014 O.3     1  UNL1       -0.3112
      5 C          21.0414   72.4516   -7.5652 C.3     1  UNL1        0.1811
      6 O          19.3719   70.7230   -7.5146 O.3     1  UNL1       -0.3308
      7 O          18.7597   71.4892  -10.3483 O.3     1  UNL1       -0.3794
      8 O          16.7580   72.7096   -8.9554 O.3     1  UNL1       -0.3779
      9 C          19.1397   72.3185   -9.2499 C.3     1  UNL1        0.1713
     10 C          17.9812   72.4783   -8.2884 C.3     1  UNL1        0.1895
     11 C          20.1489   71.5497   -8.4080 C.3     1  UNL1        0.1764
     12 C          18.0015   71.1524   -7.5471 C.3     1  UNL1        0.2383
     13 H          18.1150   71.9592  -10.9008 H       1  UNL1        0.2105
     14 H          16.7953   73.5655   -9.4114 H       1  UNL1        0.2106
     15 O          16.1500   73.1022   -6.6828 O.2     1  UNL1       -0.2464
     16 O          16.2133   71.5089   -2.3583 O.2     1  UNL1       -0.2670
     17 N          17.5170   71.2699   -6.2008 N.ar    1  UNL1       -0.2551
     18 N          16.1841   72.3074   -4.5296 N.ar    1  UNL1       -0.2743
     19 C          16.5880   72.2849   -5.8710 C.ar    1  UNL1        0.3323
     20 C          17.9599   70.3856   -5.2247 C.ar    1  UNL1        0.0869
     21 C          17.5657   70.4195   -3.9502 C.ar    1  UNL1        0.0795
     22 C          16.5969   71.4500   -3.5226 C.ar    1  UNL1        0.2626
     23 H          15.5392   73.0066   -4.2756 H       1  UNL1        0.1734
     24 O          21.2495   72.2713   -3.7010 O.3     1  UNL1       -0.2703
     25 P          21.6926   70.8902   -2.9870 P.3     1  UNL1        0.2208
     26 O          23.2934   70.8486   -3.2235 O.co2   1  UNL1       -0.4371
     27 O          20.9621   69.6772   -3.4858 O.2     1  UNL1       -0.5170
     28 O          21.5215   71.1726   -1.4079 O.3     1  UNL1       -0.2858
     29 O          23.2094   72.6326   -0.6151 O.3     1  UNL1       -0.3226
     30 O          21.2485   71.6367    2.8822 O.3     1  UNL1       -0.3794
     31 O          21.8091   69.5977    0.8665 O.3     1  UNL1       -0.3775
     32 O          20.8291   74.2434    1.6656 O.3     1  UNL1       -0.3792
     33 C          21.3665   71.9018    1.4844 C.3     1  UNL1        0.1718
     34 C          22.3504   70.9137    0.8574 C.3     1  UNL1        0.1968
     35 C          21.8727   73.3361    1.3161 C.3     1  UNL1        0.1723
     36 C          22.6778   71.3075   -0.5836 C.3     1  UNL1        0.2706
     37 C          22.2970   73.6118   -0.1235 C.3     1  UNL1        0.1830
     38 H          20.9282   70.7304    3.0137 H       1  UNL1        0.2105
     39 H          21.5987   69.3414    1.7778 H       1  UNL1        0.2106
     40 H          20.5497   74.0784    2.5797 H       1  UNL1        0.2106
     41 O          22.2636   75.9567   -0.1695 O.co2   1  UNL1       -0.5466
     42 O          24.3013   74.9426   -0.3048 O.co2   1  UNL1       -0.5466
     43 C          23.0848   74.8783   -0.2110 C.2     1  UNL1        0.0799
@<TRIPOS>UNITY_ATOM_ATTR
2 1
charge -1
26 1
charge -1
41 1
charge -1
@<TRIPOS>BOND
     1     1     4    1
     2     1    24    1
     3     1     2    1
     4     1     3    2
     5    25    28    1
     6    25    24    1
     7    25    26    1
     8    25    27    2
     9     6    11    1
    10     6    12    1
    11    29    36    1
    12    29    37    1
    13     7     9    1
    14     7    13    1
    15     8    10    1
    16     8    14    1
    17     4     5    1
    18    28    36    1
    19    30    33    1
    20    30    38    1
    21    31    34    1
    22    31    39    1
    23    32    35    1
    24    32    40    1
    25    41    43   ar
    26    15    19    2
    27    42    43   ar
    28    16    22    2
    29    17    12    1
    30    17    19   ar
    31    17    20   ar
    32    18    19   ar
    33    18    22   ar
    34    18    23    1
    35     9    10    1
    36     9    11    1
    37    10    12    1
    38    11     5    1
    39    33    34    1
    40    33    35    1
    41    34    36    1
    42    35    37    1
    43    37    43    1
    44    20    21   ar
    45    21    22   ar
