@<TRIPOS>MOLECULE
*****
 43 45 0 0 0
SMALL
GASTEIGER

@<TRIPOS>ATOM
      1 P          23.1332   71.6189   -2.5395 P.3     1  UNL1        0.2189
      2 O          23.4409   73.1464   -2.1041 O.co2   1  UNL1       -0.4371
      3 O          24.3155   70.8596   -3.0659 O.2     1  UNL1       -0.5170
      4 O          21.8754   71.7486   -3.5489 O.3     1  UNL1       -0.3112
      5 C          21.0484   70.6153   -3.7476 C.3     1  UNL1        0.1811
      6 O          19.0372   71.6117   -4.6057 O.3     1  UNL1       -0.3308
      7 O          17.6181   70.2433   -2.3464 O.3     1  UNL1       -0.3794
      8 O          17.0692   68.6167   -4.4652 O.3     1  UNL1       -0.3779
      9 C          18.7243   69.7888   -3.1242 C.3     1  UNL1        0.1713
     10 C          18.2611   69.3747   -4.5054 C.3     1  UNL1        0.1895
     11 C          19.6072   70.9917   -3.4322 C.3     1  UNL1        0.1764
     12 C          18.0771   70.7175   -5.1918 C.3     1  UNL1        0.2383
     13 H          17.0400   69.4924   -2.1370 H       1  UNL1        0.2105
     14 H          17.2378   67.7721   -4.0193 H       1  UNL1        0.2106
     15 O          16.1059   70.0496   -7.1012 O.2     1  UNL1       -0.2464
     16 O          19.0841   70.4718  -10.5931 O.2     1  UNL1       -0.2670
     17 N          18.3098   70.6458   -6.6067 N.ar    1  UNL1       -0.2551
     18 N          17.5904   70.2605   -8.8384 N.ar    1  UNL1       -0.2743
     19 C          17.2520   70.3003   -7.4797 C.ar    1  UNL1        0.3323
     20 C          19.5753   70.9167   -7.1155 C.ar    1  UNL1        0.0869
     21 C          19.8819   70.8732   -8.4137 C.ar    1  UNL1        0.0795
     22 C          18.8337   70.5204   -9.3928 C.ar    1  UNL1        0.2626
     23 H          16.8695   70.0217   -9.4653 H       1  UNL1        0.1734
     24 O          22.4674   70.9886   -1.2082 O.3     1  UNL1       -0.2703
     25 P          21.4962   71.6441   -0.0947 P.3     1  UNL1        0.2208
     26 O          20.9797   70.3630    0.7476 O.co2   1  UNL1       -0.4371
     27 O          20.3978   72.4965   -0.6611 O.2     1  UNL1       -0.5170
     28 O          22.4926   72.4186    0.9114 O.3     1  UNL1       -0.2858
     29 O          24.3120   71.9616    2.3597 O.3     1  UNL1       -0.3258
     30 O          21.8371   73.9344    5.0118 O.3     1  UNL1       -0.3794
     31 O          24.2005   75.2425    4.0366 O.3     1  UNL1       -0.3794
     32 O          20.7073   72.1235    3.0563 O.3     1  UNL1       -0.3775
     33 C          22.4301   73.6620    3.7392 C.3     1  UNL1        0.1715
     34 C          23.9431   73.8517    3.8647 C.3     1  UNL1        0.1694
     35 C          22.1001   72.2273    3.3315 C.3     1  UNL1        0.1967
     36 C          24.6726   73.3227    2.6225 C.3     1  UNL1        0.1761
     37 C          22.9154   71.7839    2.1154 C.3     1  UNL1        0.2704
     38 H          22.0424   74.8440    5.2762 H       1  UNL1        0.2105
     39 H          23.7337   75.5641    4.8239 H       1  UNL1        0.2105
     40 H          20.2022   72.4066    3.8338 H       1  UNL1        0.2106
     41 O          26.4849   73.7737    4.1129 O.3     1  UNL1       -0.3794
     42 C          26.1899   73.3574    2.7923 C.3     1  UNL1        0.1693
     43 H          27.4472   73.8002    4.2356 H       1  UNL1        0.2105
@<TRIPOS>UNITY_ATOM_ATTR
2 1
charge -1
26 1
charge -1
@<TRIPOS>BOND
     1    25    28    1
     2    25    24    1
     3    25    26    1
     4    25    27    2
     5     1     4    1
     6     1    24    1
     7     1     2    1
     8     1     3    2
     9     6    11    1
    10     6    12    1
    11    29    36    1
    12    29    37    1
    13     7     9    1
    14     7    13    1
    15     8    10    1
    16     8    14    1
    17    28    37    1
    18     4     5    1
    19    30    33    1
    20    30    38    1
    21    31    34    1
    22    31    39    1
    23    32    35    1
    24    32    40    1
    25    41    42    1
    26    41    43    1
    27    15    19    2
    28    16    22    2
    29    17    12    1
    30    17    19   ar
    31    17    20   ar
    32    18    19   ar
    33    18    22   ar
    34    18    23    1
    35     9    10    1
    36     9    11    1
    37    10    12    1
    38    11     5    1
    39    33    34    1
    40    33    35    1
    41    34    36    1
    42    35    37    1
    43    36    42    1
    44    20    21   ar
    45    21    22   ar
@<TRIPOS>MOLECULE
*****
 43 45 0 0 0
SMALL
GASTEIGER

@<TRIPOS>ATOM
      1 P          21.4904   72.5342   -4.7701 P.3     1  UNL1        0.2189
      2 O          21.3897   74.1240   -4.4879 O.co2   1  UNL1       -0.4371
      3 O          22.3573   72.1506   -5.9331 O.2     1  UNL1       -0.5170
      4 O          19.9469   72.0565   -4.8566 O.3     1  UNL1       -0.3112
      5 C          19.3945   71.3523   -3.7581 C.3     1  UNL1        0.1811
      6 O          17.5299   71.7537   -5.2196 O.3     1  UNL1       -0.3308
      7 O          15.8881   70.2084   -3.2430 O.3     1  UNL1       -0.3794
      8 O          16.3357   68.3719   -5.2086 O.3     1  UNL1       -0.3779
      9 C          17.2403   70.0030   -3.6489 C.3     1  UNL1        0.1713
     10 C          17.2867   69.4032   -5.0388 C.3     1  UNL1        0.1895
     11 C          17.8762   71.3697   -3.8710 C.3     1  UNL1        0.1764
     12 C          17.0006   70.6120   -5.9134 C.3     1  UNL1        0.2383
     13 H          15.4612   69.3494   -3.0948 H       1  UNL1        0.2105
     14 H          16.5611   67.6258   -4.6313 H       1  UNL1        0.2106
     15 O          15.6235   70.7683   -8.3745 O.2     1  UNL1       -0.2464
     16 O          19.5102   70.2328  -10.7927 O.2     1  UNL1       -0.2670
     17 N          17.6279   70.5169   -7.2014 N.ar    1  UNL1       -0.2551
     18 N          17.5599   70.5017   -9.5766 N.ar    1  UNL1       -0.2743
     19 C          16.8456   70.6069   -8.3763 C.ar    1  UNL1        0.3323
     20 C          19.0039   70.3368   -7.2904 C.ar    1  UNL1        0.0869
     21 C          19.6698   70.2371   -8.4427 C.ar    1  UNL1        0.0795
     22 C          18.9268   70.3209   -9.7167 C.ar    1  UNL1        0.2626
     23 H          17.0357   70.5611  -10.4081 H       1  UNL1        0.1734
     24 O          21.9746   71.9422   -3.3460 O.3     1  UNL1       -0.2703
     25 P          23.4231   71.9542   -2.6286 P.3     1  UNL1        0.2208
     26 O          24.0634   73.3601   -3.1091 O.co2   1  UNL1       -0.4371
     27 O          24.2699   70.7522   -2.9317 O.2     1  UNL1       -0.5170
     28 O          23.1010   72.1675   -1.0615 O.3     1  UNL1       -0.2858
     29 O          24.2884   71.0092    0.6311 O.3     1  UNL1       -0.3258
     30 O          20.8032   71.8055    2.6974 O.3     1  UNL1       -0.3794
     31 O          23.2006   73.2444    3.3531 O.3     1  UNL1       -0.3794
     32 O          20.6893   71.0962   -0.1068 O.3     1  UNL1       -0.3775
     33 C          21.8536   72.0698    1.7635 C.3     1  UNL1        0.1715
     34 C          23.1802   72.0847    2.5255 C.3     1  UNL1        0.1694
     35 C          21.8590   70.9773    0.6959 C.3     1  UNL1        0.1967
     36 C          24.3733   72.0959    1.5603 C.3     1  UNL1        0.1761
     37 C          23.1119   71.0485   -0.1789 C.3     1  UNL1        0.2704
     38 H          20.7940   72.4958    3.3777 H       1  UNL1        0.2105
     39 H          22.4419   73.2252    3.9574 H       1  UNL1        0.2105
     40 H          19.9032   71.0493    0.4585 H       1  UNL1        0.2106
     41 O          25.9811   70.5731    2.4573 O.3     1  UNL1       -0.3794
     42 C          25.7044   71.9519    2.2948 C.3     1  UNL1        0.1693
     43 H          26.8257   70.4661    2.9231 H       1  UNL1        0.2105
@<TRIPOS>UNITY_ATOM_ATTR
2 1
charge -1
26 1
charge -1
@<TRIPOS>BOND
     1    25    28    1
     2    25    24    1
     3    25    26    1
     4    25    27    2
     5     1     4    1
     6     1    24    1
     7     1     2    1
     8     1     3    2
     9     6    11    1
    10     6    12    1
    11    29    36    1
    12    29    37    1
    13     7     9    1
    14     7    13    1
    15     8    10    1
    16     8    14    1
    17    28    37    1
    18     4     5    1
    19    30    33    1
    20    30    38    1
    21    31    34    1
    22    31    39    1
    23    32    35    1
    24    32    40    1
    25    41    42    1
    26    41    43    1
    27    15    19    2
    28    16    22    2
    29    17    12    1
    30    17    19   ar
    31    17    20   ar
    32    18    19   ar
    33    18    22   ar
    34    18    23    1
    35     9    10    1
    36     9    11    1
    37    10    12    1
    38    11     5    1
    39    33    34    1
    40    33    35    1
    41    34    36    1
    42    35    37    1
    43    36    42    1
    44    20    21   ar
    45    21    22   ar
@<TRIPOS>MOLECULE
*****
 43 45 0 0 0
SMALL
GASTEIGER

@<TRIPOS>ATOM
      1 P          22.6930   71.4290   -2.7324 P.3     1  UNL1        0.2189
      2 O          22.7271   73.0241   -2.4644 O.co2   1  UNL1       -0.4371
      3 O          24.0246   70.8093   -3.0396 O.2     1  UNL1       -0.5170
      4 O          21.5558   71.2503   -3.8693 O.3     1  UNL1       -0.3112
      5 C          20.6451   70.1712   -3.7510 C.3     1  UNL1        0.1811
      6 O          18.8477   71.4376   -4.7204 O.3     1  UNL1       -0.3308
      7 O          17.1015   70.2232   -2.6068 O.3     1  UNL1       -0.3794
      8 O          16.5056   68.7227   -4.8044 O.3     1  UNL1       -0.3779
      9 C          18.1944   69.6432   -3.3171 C.3     1  UNL1        0.1713
     10 C          17.7849   69.3194   -4.7387 C.3     1  UNL1        0.1895
     11 C          19.2450   70.7263   -3.5276 C.3     1  UNL1        0.1764
     12 C          17.8263   70.6875   -5.3980 C.3     1  UNL1        0.2383
     13 H          16.4178   69.5502   -2.4602 H       1  UNL1        0.2105
     14 H          16.5309   67.8549   -4.3719 H       1  UNL1        0.2106
     15 O          15.9493   70.1905   -7.4492 O.2     1  UNL1       -0.2464
     16 O          19.1880   70.4219  -10.7201 O.2     1  UNL1       -0.2670
     17 N          18.1515   70.6129   -6.7944 N.ar    1  UNL1       -0.2551
     18 N          17.5634   70.3063   -9.0762 N.ar    1  UNL1       -0.2743
     19 C          17.1346   70.3576   -7.7437 C.ar    1  UNL1        0.3323
     20 C          19.4663   70.7925   -7.2103 C.ar    1  UNL1        0.0869
     21 C          19.8590   70.7393   -8.4848 C.ar    1  UNL1        0.0795
     22 C          18.8585   70.4770   -9.5393 C.ar    1  UNL1        0.2626
     23 H          16.8724   70.1293   -9.7551 H       1  UNL1        0.1734
     24 O          21.9731   70.8527   -1.4047 O.3     1  UNL1       -0.2703
     25 P          22.2997   71.0773    0.1624 P.3     1  UNL1        0.2208
     26 O          23.8842   71.4042    0.1680 O.co2   1  UNL1       -0.4371
     27 O          21.9010   69.9300    1.0447 O.2     1  UNL1       -0.5170
     28 O          21.5927   72.4809    0.5299 O.3     1  UNL1       -0.2858
     29 O          21.2052   72.2522    2.8567 O.3     1  UNL1       -0.3258
     30 O          19.9486   76.1540    2.3589 O.3     1  UNL1       -0.3794
     31 O          22.4301   75.6242    3.7042 O.3     1  UNL1       -0.3794
     32 O          19.3683   74.1793    0.3234 O.3     1  UNL1       -0.3775
     33 C          20.7614   75.0047    2.1065 C.3     1  UNL1        0.1715
     34 C          21.4644   74.6188    3.4095 C.3     1  UNL1        0.1694
     35 C          19.8730   73.8629    1.6163 C.3     1  UNL1        0.1967
     36 C          22.1412   73.2468    3.2885 C.3     1  UNL1        0.1761
     37 C          20.6299   72.5340    1.5794 C.3     1  UNL1        0.2704
     38 H          20.5068   76.8828    2.6700 H       1  UNL1        0.2105
     39 H          21.9898   76.4856    3.7775 H       1  UNL1        0.2105
     40 H          18.8910   75.0223    0.3602 H       1  UNL1        0.2106
     41 O          21.7366   72.9727    5.6274 O.3     1  UNL1       -0.3794
     42 C          22.7133   72.7718    4.6224 C.3     1  UNL1        0.1693
     43 H          22.0868   72.6745    6.4819 H       1  UNL1        0.2105
@<TRIPOS>UNITY_ATOM_ATTR
2 1
charge -1
26 1
charge -1
@<TRIPOS>BOND
     1    25    28    1
     2    25    24    1
     3    25    26    1
     4    25    27    2
     5     1     4    1
     6     1    24    1
     7     1     2    1
     8     1     3    2
     9     6    11    1
    10     6    12    1
    11    29    36    1
    12    29    37    1
    13     7     9    1
    14     7    13    1
    15     8    10    1
    16     8    14    1
    17    28    37    1
    18     4     5    1
    19    30    33    1
    20    30    38    1
    21    31    34    1
    22    31    39    1
    23    32    35    1
    24    32    40    1
    25    41    42    1
    26    41    43    1
    27    15    19    2
    28    16    22    2
    29    17    12    1
    30    17    19   ar
    31    17    20   ar
    32    18    19   ar
    33    18    22   ar
    34    18    23    1
    35     9    10    1
    36     9    11    1
    37    10    12    1
    38    11     5    1
    39    33    34    1
    40    33    35    1
    41    34    36    1
    42    35    37    1
    43    36    42    1
    44    20    21   ar
    45    21    22   ar
@<TRIPOS>MOLECULE
*****
 43 45 0 0 0
SMALL
GASTEIGER

@<TRIPOS>ATOM
      1 P          23.4787   73.6015   -4.1528 P.3     1  UNL1        0.2189
      2 O          22.6798   74.9944   -4.3503 O.co2   1  UNL1       -0.4371
      3 O          24.9698   73.7348   -4.0519 O.2     1  UNL1       -0.5170
      4 O          22.9367   72.6685   -5.3585 O.3     1  UNL1       -0.3112
      5 C          21.5639   72.3182   -5.3777 C.3     1  UNL1        0.1811
      6 O          20.5053   70.3608   -6.2841 O.3     1  UNL1       -0.3308
      7 O          20.6473   71.7432   -8.9411 O.3     1  UNL1       -0.3794
      8 O          18.0523   72.1399   -8.2026 O.3     1  UNL1       -0.3779
      9 C          20.4141   72.2971   -7.6472 C.3     1  UNL1        0.1713
     10 C          19.0117   71.9684   -7.1794 C.3     1  UNL1        0.1895
     11 C          21.2708   71.5306   -6.6473 C.3     1  UNL1        0.1764
     12 C          19.1548   70.5184   -6.7492 C.3     1  UNL1        0.2383
     13 H          20.1111   72.2169   -9.5968 H       1  UNL1        0.2105
     14 H          17.9982   73.0785   -8.4413 H       1  UNL1        0.2106
     15 O          16.4489   69.8017   -7.1262 O.2     1  UNL1       -0.2464
     16 O          15.7870   69.2038   -2.6045 O.2     1  UNL1       -0.2670
     17 N          18.2525   70.1703   -5.6881 N.ar    1  UNL1       -0.2551
     18 N          16.1216   69.5044   -4.8744 N.ar    1  UNL1       -0.2743
     19 C          16.9129   69.8267   -5.9844 C.ar    1  UNL1        0.3323
     20 C          18.6984   70.1716   -4.3709 C.ar    1  UNL1        0.0869
     21 C          17.9308   69.8631   -3.3236 C.ar    1  UNL1        0.0795
     22 C          16.5184   69.4925   -3.5466 C.ar    1  UNL1        0.2626
     23 H          15.1846   69.2622   -5.0566 H       1  UNL1        0.1734
     24 O          22.7711   72.9583   -2.8495 O.3     1  UNL1       -0.2703
     25 P          22.9318   71.5034   -2.1637 P.3     1  UNL1        0.2208
     26 O          24.2621   70.9072   -2.8654 O.co2   1  UNL1       -0.4371
     27 O          21.7196   70.6266   -2.2892 O.2     1  UNL1       -0.5170
     28 O          23.3774   71.8151   -0.6440 O.3     1  UNL1       -0.2858
     29 O          24.5618   70.7222    1.0936 O.3     1  UNL1       -0.3258
     30 O          21.2205   71.9021    3.2135 O.3     1  UNL1       -0.3794
     31 O          23.7260   73.2327    3.6602 O.3     1  UNL1       -0.3794
     32 O          20.9471   70.9797    0.4833 O.3     1  UNL1       -0.3775
     33 C          22.2452   72.0233    2.2232 C.3     1  UNL1        0.1715
     34 C          23.6009   72.0142    2.9322 C.3     1  UNL1        0.1694
     35 C          22.1397   70.8508    1.2497 C.3     1  UNL1        0.1967
     36 C          24.7512   71.8721    1.9264 C.3     1  UNL1        0.1761
     37 C          23.3571   70.7718    0.3267 C.3     1  UNL1        0.2704
     38 H          21.2815   72.6438    3.8345 H       1  UNL1        0.2105
     39 H          22.9934   73.3104    4.2914 H       1  UNL1        0.2105
     40 H          20.1837   71.0285    1.0789 H       1  UNL1        0.2106
     41 O          26.6702   72.9840    2.8152 O.3     1  UNL1       -0.3794
     42 C          26.1006   71.7025    2.6210 C.3     1  UNL1        0.1693
     43 H          27.5295   72.8917    3.2566 H       1  UNL1        0.2105
@<TRIPOS>UNITY_ATOM_ATTR
2 1
charge -1
26 1
charge -1
@<TRIPOS>BOND
     1    25    28    1
     2    25    24    1
     3    25    26    1
     4    25    27    2
     5     1     4    1
     6     1    24    1
     7     1     2    1
     8     1     3    2
     9     6    11    1
    10     6    12    1
    11    29    36    1
    12    29    37    1
    13     7     9    1
    14     7    13    1
    15     8    10    1
    16     8    14    1
    17    28    37    1
    18     4     5    1
    19    30    33    1
    20    30    38    1
    21    31    34    1
    22    31    39    1
    23    32    35    1
    24    32    40    1
    25    41    42    1
    26    41    43    1
    27    15    19    2
    28    16    22    2
    29    17    12    1
    30    17    19   ar
    31    17    20   ar
    32    18    19   ar
    33    18    22   ar
    34    18    23    1
    35     9    10    1
    36     9    11    1
    37    10    12    1
    38    11     5    1
    39    33    34    1
    40    33    35    1
    41    34    36    1
    42    35    37    1
    43    36    42    1
    44    20    21   ar
    45    21    22   ar
@<TRIPOS>MOLECULE
*****
 43 45 0 0 0
SMALL
GASTEIGER

@<TRIPOS>ATOM
      1 P          20.8738   72.2098   -1.1776 P.3     1  UNL1        0.2189
      2 O          20.3340   70.7159   -0.8702 O.co2   1  UNL1       -0.4371
      3 O          19.8031   73.2373   -1.3997 O.2     1  UNL1       -0.5170
      4 O          21.9138   72.0032   -2.3997 O.3     1  UNL1       -0.3112
      5 C          21.9149   72.9500   -3.4539 C.3     1  UNL1        0.1811
      6 O          21.7219   71.0176   -4.8691 O.3     1  UNL1       -0.3308
      7 O          23.0385   72.6740   -6.9937 O.3     1  UNL1       -0.3794
      8 O          20.4072   72.7817   -7.7015 O.3     1  UNL1       -0.3779
      9 C          22.1077   73.0707   -5.9880 C.3     1  UNL1        0.1713
     10 C          20.7169   72.5834   -6.3371 C.3     1  UNL1        0.1895
     11 C          22.4151   72.2766   -4.7246 C.3     1  UNL1        0.1764
     12 C          20.7951   71.1130   -5.9631 C.3     1  UNL1        0.2383
     13 H          22.8622   73.1681   -7.8102 H       1  UNL1        0.2105
     14 H          20.3688   73.7324   -7.8896 H       1  UNL1        0.2106
     15 O          18.6745   70.4837   -7.7195 O.2     1  UNL1       -0.2464
     16 O          15.9723   69.0966   -4.2532 O.2     1  UNL1       -0.2670
     17 N          19.5264   70.5855   -5.5467 N.ar    1  UNL1       -0.2551
     18 N          17.3308   69.7934   -5.9921 N.ar    1  UNL1       -0.2743
     19 C          18.5283   70.3044   -6.5086 C.ar    1  UNL1        0.3323
     20 C          19.2820   70.3520   -4.1977 C.ar    1  UNL1        0.0869
     21 C          18.1341   69.8655   -3.7213 C.ar    1  UNL1        0.0795
     22 C          17.0396   69.5451   -4.6601 C.ar    1  UNL1        0.2626
     23 H          16.6209   69.5904   -6.6437 H       1  UNL1        0.1734
     24 O          21.8450   72.5111    0.0790 O.3     1  UNL1       -0.2703
     25 P          21.6787   72.1803    1.6525 P.3     1  UNL1        0.2208
     26 O          22.2810   70.6843    1.7828 O.co2   1  UNL1       -0.4371
     27 O          20.2767   72.3304    2.1680 O.2     1  UNL1       -0.5170
     28 O          22.7652   73.1224    2.3851 O.3     1  UNL1       -0.2858
     29 O          24.8356   72.8214    3.4984 O.3     1  UNL1       -0.3258
     30 O          22.9607   75.2714    6.2430 O.3     1  UNL1       -0.3794
     31 O          25.0889   76.3219    4.6259 O.3     1  UNL1       -0.3794
     32 O          21.4465   73.2284    4.8599 O.3     1  UNL1       -0.3775
     33 C          23.2831   74.7848    4.9374 C.3     1  UNL1        0.1715
     34 C          24.7917   74.9323    4.7297 C.3     1  UNL1        0.1694
     35 C          22.8670   73.3186    4.8343 C.3     1  UNL1        0.1967
     36 C          25.2520   74.1916    3.4669 C.3     1  UNL1        0.1761
     37 C          23.4171   72.6632    3.5663 C.3     1  UNL1        0.2704
     38 H          23.2220   76.2021    6.3149 H       1  UNL1        0.2105
     39 H          24.7928   76.7780    5.4293 H       1  UNL1        0.2105
     40 H          21.1106   73.6466    5.6675 H       1  UNL1        0.2106
     41 O          27.2002   72.8690    3.0620 O.3     1  UNL1       -0.3794
     42 C          26.7726   74.1926    3.3255 C.3     1  UNL1        0.1693
     43 H          28.1661   72.8543    2.9693 H       1  UNL1        0.2105
@<TRIPOS>UNITY_ATOM_ATTR
2 1
charge -1
26 1
charge -1
@<TRIPOS>BOND
     1    25    28    1
     2    25    24    1
     3    25    26    1
     4    25    27    2
     5     1     4    1
     6     1    24    1
     7     1     2    1
     8     1     3    2
     9     6    11    1
    10     6    12    1
    11    29    36    1
    12    29    37    1
    13     7     9    1
    14     7    13    1
    15     8    10    1
    16     8    14    1
    17    28    37    1
    18     4     5    1
    19    30    33    1
    20    30    38    1
    21    31    34    1
    22    31    39    1
    23    32    35    1
    24    32    40    1
    25    41    42    1
    26    41    43    1
    27    15    19    2
    28    16    22    2
    29    17    12    1
    30    17    19   ar
    31    17    20   ar
    32    18    19   ar
    33    18    22   ar
    34    18    23    1
    35     9    10    1
    36     9    11    1
    37    10    12    1
    38    11     5    1
    39    33    34    1
    40    33    35    1
    41    34    36    1
    42    35    37    1
    43    36    42    1
    44    20    21   ar
    45    21    22   ar
@<TRIPOS>MOLECULE
*****
 43 45 0 0 0
SMALL
GASTEIGER

@<TRIPOS>ATOM
      1 P          19.7123   73.0565   -1.5645 P.3     1  UNL1        0.2189
      2 O          18.9772   73.1147   -0.1245 O.co2   1  UNL1       -0.4371
      3 O          19.4838   74.2523   -2.4416 O.2     1  UNL1       -0.5170
      4 O          19.2477   71.6343   -2.1805 O.3     1  UNL1       -0.3112
      5 C          18.9640   71.5581   -3.5667 C.3     1  UNL1        0.1811
      6 O          17.1463   71.7913   -5.1208 O.3     1  UNL1       -0.3308
      7 O          15.5657   70.0700   -3.2422 O.3     1  UNL1       -0.3794
      8 O          16.2921   68.3088   -5.1933 O.3     1  UNL1       -0.3779
      9 C          16.9505   70.0029   -3.5785 C.3     1  UNL1        0.1713
     10 C          17.1269   69.4264   -4.9677 C.3     1  UNL1        0.1895
     11 C          17.4592   71.4278   -3.7584 C.3     1  UNL1        0.1764
     12 C          16.7683   70.6113   -5.8484 C.3     1  UNL1        0.2383
     13 H          15.2184   69.1717   -3.1219 H       1  UNL1        0.2105
     14 H          16.5601   67.5819   -4.6098 H       1  UNL1        0.2106
     15 O          15.5109   70.6754   -8.3768 O.2     1  UNL1       -0.2464
     16 O          19.5496   70.5348  -10.5926 O.2     1  UNL1       -0.2670
     17 N          17.4670   70.5929   -7.1025 N.ar    1  UNL1       -0.2551
     18 N          17.5229   70.6056   -9.4781 N.ar    1  UNL1       -0.2743
     19 C          16.7412   70.6273   -8.3160 C.ar    1  UNL1        0.3323
     20 C          18.8566   70.5415   -7.1209 C.ar    1  UNL1        0.0869
     21 C          19.5871   70.5201   -8.2376 C.ar    1  UNL1        0.0795
     22 C          18.9060   70.5535   -9.5480 C.ar    1  UNL1        0.2626
     23 H          17.0388   70.6284  -10.3353 H       1  UNL1        0.1734
     24 O          21.2586   72.7950   -1.1729 O.3     1  UNL1       -0.2703
     25 P          21.9427   71.6549   -0.2537 P.3     1  UNL1        0.2208
     26 O          23.0884   71.0400   -1.2165 O.co2   1  UNL1       -0.4371
     27 O          20.9780   70.6397    0.2873 O.2     1  UNL1       -0.5170
     28 O          22.7553   72.4735    0.8753 O.3     1  UNL1       -0.2858
     29 O          24.4135   73.9568    0.0588 O.3     1  UNL1       -0.3258
     30 O          25.5521   73.8132    4.0254 O.3     1  UNL1       -0.3794
     31 O          24.3036   76.1848    2.9936 O.3     1  UNL1       -0.3794
     32 O          24.5984   71.4178    2.7093 O.3     1  UNL1       -0.3775
     33 C          24.6271   73.8157    2.9346 C.3     1  UNL1        0.1715
     34 C          24.7918   75.1301    2.1692 C.3     1  UNL1        0.1694
     35 C          24.9233   72.6238    2.0263 C.3     1  UNL1        0.1967
     36 C          24.0288   75.0954    0.8381 C.3     1  UNL1        0.1761
     37 C          24.1505   72.7118    0.7090 C.3     1  UNL1        0.2704
     38 H          25.3692   74.5673    4.6063 H       1  UNL1        0.2105
     39 H          24.7933   76.1954    3.8310 H       1  UNL1        0.2105
     40 H          25.0942   71.3739    3.5412 H       1  UNL1        0.2106
     41 O          23.4551   77.3772    0.4217 O.3     1  UNL1       -0.3794
     42 C          24.3065   76.3328   -0.0127 C.3     1  UNL1        0.1693
     43 H          23.6210   78.1713   -0.1108 H       1  UNL1        0.2105
@<TRIPOS>UNITY_ATOM_ATTR
2 1
charge -1
26 1
charge -1
@<TRIPOS>BOND
     1    25    28    1
     2    25    24    1
     3    25    26    1
     4    25    27    2
     5     1     4    1
     6     1    24    1
     7     1     2    1
     8     1     3    2
     9     6    11    1
    10     6    12    1
    11    29    36    1
    12    29    37    1
    13     7     9    1
    14     7    13    1
    15     8    10    1
    16     8    14    1
    17    28    37    1
    18     4     5    1
    19    30    33    1
    20    30    38    1
    21    31    34    1
    22    31    39    1
    23    32    35    1
    24    32    40    1
    25    41    42    1
    26    41    43    1
    27    15    19    2
    28    16    22    2
    29    17    12    1
    30    17    19   ar
    31    17    20   ar
    32    18    19   ar
    33    18    22   ar
    34    18    23    1
    35     9    10    1
    36     9    11    1
    37    10    12    1
    38    11     5    1
    39    33    34    1
    40    33    35    1
    41    34    36    1
    42    35    37    1
    43    36    42    1
    44    20    21   ar
    45    21    22   ar
@<TRIPOS>MOLECULE
*****
 43 45 0 0 0
SMALL
GASTEIGER

@<TRIPOS>ATOM
      1 P          21.6975   71.6226   -0.6784 P.3     1  UNL1        0.2189
      2 O          23.1360   71.0881   -1.1907 O.co2   1  UNL1       -0.4371
      3 O          20.7058   70.5483   -0.3410 O.2     1  UNL1       -0.5170
      4 O          21.2394   72.6662   -1.8268 O.3     1  UNL1       -0.3112
      5 C          20.5844   72.1610   -2.9772 C.3     1  UNL1        0.1811
      6 O          21.0344   70.7325   -4.8563 O.3     1  UNL1       -0.3308
      7 O          23.3836   72.5122   -5.4082 O.3     1  UNL1       -0.3794
      8 O          21.5359   73.3908   -7.2111 O.3     1  UNL1       -0.3779
      9 C          22.0923   72.8525   -4.9063 C.3     1  UNL1        0.1713
     10 C          21.0651   72.7981   -6.0178 C.3     1  UNL1        0.1895
     11 C          21.6318   71.7239   -3.9922 C.3     1  UNL1        0.1764
     12 C          20.8329   71.3034   -6.1595 C.3     1  UNL1        0.2383
     13 H          23.6989   73.2184   -5.9945 H       1  UNL1        0.2105
     14 H          21.6680   74.3413   -7.0699 H       1  UNL1        0.2106
     15 O          20.0434   71.1751   -8.8684 O.2     1  UNL1       -0.2464
     16 O          15.7019   70.1141   -7.7430 O.2     1  UNL1       -0.2670
     17 N          19.5026   70.9954   -6.6030 N.ar    1  UNL1       -0.2551
     18 N          17.8824   70.6467   -8.3059 N.ar    1  UNL1       -0.2743
     19 C          19.2103   70.9574   -7.9863 C.ar    1  UNL1        0.3323
     20 C          18.5043   70.7347   -5.6706 C.ar    1  UNL1        0.0869
     21 C          17.2425   70.4412   -5.9917 C.ar    1  UNL1        0.0795
     22 C          16.8540   70.3812   -7.4156 C.ar    1  UNL1        0.2626
     23 H          17.6554   70.6149   -9.2636 H       1  UNL1        0.1734
     24 O          22.0879   72.5896    0.5567 O.3     1  UNL1       -0.2703
     25 P          23.5107   73.2056    1.0139 P.3     1  UNL1        0.2208
     26 O          23.7436   74.4178   -0.0320 O.co2   1  UNL1       -0.4371
     27 O          24.6284   72.2044    1.0604 O.2     1  UNL1       -0.5170
     28 O          23.2068   73.9345    2.4215 O.3     1  UNL1       -0.2858
     29 O          24.2936   73.9062    4.5274 O.3     1  UNL1       -0.3258
     30 O          20.3703   73.7638    5.8075 O.3     1  UNL1       -0.3794
     31 O          21.8853   76.1801    6.1456 O.3     1  UNL1       -0.3794
     32 O          21.1728   72.2949    3.4458 O.3     1  UNL1       -0.3775
     33 C          21.4486   74.1535    4.9527 C.3     1  UNL1        0.1715
     34 C          22.4677   74.9294    5.7895 C.3     1  UNL1        0.1694
     35 C          22.0869   72.9023    4.3523 C.3     1  UNL1        0.1967
     36 C          23.7715   75.1495    5.0105 C.3     1  UNL1        0.1761
     37 C          23.4027   73.2249    3.6419 C.3     1  UNL1        0.2704
     38 H          19.9604   74.5537    6.1916 H       1  UNL1        0.2105
     39 H          21.0627   76.0270    6.6365 H       1  UNL1        0.2105
     40 H          20.3441   72.0953    3.9076 H       1  UNL1        0.2106
     41 O          25.4345   74.7702    6.6837 O.3     1  UNL1       -0.3794
     42 C          24.8569   75.7817    5.8790 C.3     1  UNL1        0.1693
     43 H          26.1273   75.1580    7.2416 H       1  UNL1        0.2105
@<TRIPOS>UNITY_ATOM_ATTR
2 1
charge -1
26 1
charge -1
@<TRIPOS>BOND
     1    25    28    1
     2    25    24    1
     3    25    26    1
     4    25    27    2
     5     1     4    1
     6     1    24    1
     7     1     2    1
     8     1     3    2
     9     6    11    1
    10     6    12    1
    11    29    36    1
    12    29    37    1
    13     7     9    1
    14     7    13    1
    15     8    10    1
    16     8    14    1
    17    28    37    1
    18     4     5    1
    19    30    33    1
    20    30    38    1
    21    31    34    1
    22    31    39    1
    23    32    35    1
    24    32    40    1
    25    41    42    1
    26    41    43    1
    27    15    19    2
    28    16    22    2
    29    17    12    1
    30    17    19   ar
    31    17    20   ar
    32    18    19   ar
    33    18    22   ar
    34    18    23    1
    35     9    10    1
    36     9    11    1
    37    10    12    1
    38    11     5    1
    39    33    34    1
    40    33    35    1
    41    34    36    1
    42    35    37    1
    43    36    42    1
    44    20    21   ar
    45    21    22   ar
@<TRIPOS>MOLECULE
*****
 43 45 0 0 0
SMALL
GASTEIGER

@<TRIPOS>ATOM
      1 P          19.0990   73.3326   -0.5222 P.3     1  UNL1        0.2189
      2 O          18.5298   74.1306    0.7648 O.co2   1  UNL1       -0.4371
      3 O          20.0323   74.1199   -1.3943 O.2     1  UNL1       -0.5170
      4 O          17.7683   72.7668   -1.2482 O.3     1  UNL1       -0.3112
      5 C          17.9076   72.0998   -2.4906 C.3     1  UNL1        0.1811
      6 O          16.4530   70.8132   -3.9057 O.3     1  UNL1       -0.3308
      7 O          16.5043   68.7310   -1.7487 O.3     1  UNL1       -0.3794
      8 O          18.2672   67.7369   -3.5764 O.3     1  UNL1       -0.3779
      9 C          17.5469   69.5993   -2.1894 C.3     1  UNL1        0.1713
     10 C          18.0856   69.1374   -3.5273 C.3     1  UNL1        0.1895
     11 C          16.9205   70.9419   -2.5451 C.3     1  UNL1        0.1764
     12 C          17.0095   69.6214   -4.4843 C.3     1  UNL1        0.2383
     13 H          16.8802   67.8671   -1.5155 H       1  UNL1        0.2105
     14 H          18.9615   67.4786   -2.9504 H       1  UNL1        0.2106
     15 O          15.5460   69.4001   -6.8900 O.2     1  UNL1       -0.2464
     16 O          19.1209   70.8491   -9.4122 O.2     1  UNL1       -0.2670
     17 N          17.5330   69.9346   -5.7840 N.ar    1  UNL1       -0.2551
     18 N          17.3271   70.1219   -8.1439 N.ar    1  UNL1       -0.2743
     19 C          16.7154   69.7883   -6.9288 C.ar    1  UNL1        0.3323
     20 C          18.8434   70.3816   -5.9140 C.ar    1  UNL1        0.0869
     21 C          19.4123   70.6944   -7.0801 C.ar    1  UNL1        0.0795
     22 C          18.6263   70.5693   -8.3246 C.ar    1  UNL1        0.2626
     23 H          16.7768   70.0274   -8.9550 H       1  UNL1        0.1734
     24 O          19.7487   72.0046    0.1316 O.3     1  UNL1       -0.2703
     25 P          21.2389   71.3877    0.0224 P.3     1  UNL1        0.2208
     26 O          21.3321   70.9140   -1.5218 O.co2   1  UNL1       -0.4371
     27 O          21.5315   70.3055    1.0209 O.2     1  UNL1       -0.5170
     28 O          22.2185   72.6670    0.1161 O.3     1  UNL1       -0.2858
     29 O          23.8636   72.6456   -1.5896 O.3     1  UNL1       -0.3258
     30 O          25.3454   75.7331    0.7175 O.3     1  UNL1       -0.3794
     31 O          24.1203   76.3162   -1.8137 O.3     1  UNL1       -0.3794
     32 O          24.1679   73.4154    1.9909 O.3     1  UNL1       -0.3775
     33 C          24.3275   74.9249    0.1208 C.3     1  UNL1        0.1715
     34 C          24.4834   75.0021   -1.3992 C.3     1  UNL1        0.1694
     35 C          24.4856   73.4848    0.6050 C.3     1  UNL1        0.1967
     36 C          23.6034   73.9584   -2.1002 C.3     1  UNL1        0.1761
     37 C          23.6027   72.5214   -0.1902 C.3     1  UNL1        0.2704
     38 H          25.2503   76.6488    0.4145 H       1  UNL1        0.2105
     39 H          24.6831   76.9656   -1.3636 H       1  UNL1        0.2105
     40 H          24.7337   74.0296    2.4834 H       1  UNL1        0.2106
     41 O          24.3428   72.6223   -3.9378 O.3     1  UNL1       -0.3794
     42 C          23.8605   73.9110   -3.6047 C.3     1  UNL1        0.1693
     43 H          24.5106   72.5773   -4.8925 H       1  UNL1        0.2105
@<TRIPOS>UNITY_ATOM_ATTR
2 1
charge -1
26 1
charge -1
@<TRIPOS>BOND
     1    25    28    1
     2    25    24    1
     3    25    26    1
     4    25    27    2
     5     1     4    1
     6     1    24    1
     7     1     2    1
     8     1     3    2
     9     6    11    1
    10     6    12    1
    11    29    36    1
    12    29    37    1
    13     7     9    1
    14     7    13    1
    15     8    10    1
    16     8    14    1
    17    28    37    1
    18     4     5    1
    19    30    33    1
    20    30    38    1
    21    31    34    1
    22    31    39    1
    23    32    35    1
    24    32    40    1
    25    41    42    1
    26    41    43    1
    27    15    19    2
    28    16    22    2
    29    17    12    1
    30    17    19   ar
    31    17    20   ar
    32    18    19   ar
    33    18    22   ar
    34    18    23    1
    35     9    10    1
    36     9    11    1
    37    10    12    1
    38    11     5    1
    39    33    34    1
    40    33    35    1
    41    34    36    1
    42    35    37    1
    43    36    42    1
    44    20    21   ar
    45    21    22   ar
@<TRIPOS>MOLECULE
*****
 43 45 0 0 0
SMALL
GASTEIGER

@<TRIPOS>ATOM
      1 P          20.1146   71.8288   -1.1559 P.3     1  UNL1        0.2189
      2 O          19.5130   70.3655   -1.4935 O.co2   1  UNL1       -0.4371
      3 O          19.1031   72.9364   -1.1169 O.2     1  UNL1       -0.5170
      4 O          21.3154   72.0112   -2.2248 O.3     1  UNL1       -0.3112
      5 C          21.2966   73.1439   -3.0761 C.3     1  UNL1        0.1811
      6 O          21.7260   71.6374   -4.8981 O.3     1  UNL1       -0.3308
      7 O          23.2520   73.8912   -6.1561 O.3     1  UNL1       -0.3794
      8 O          20.8753   73.9647   -7.4910 O.3     1  UNL1       -0.3779
      9 C          22.0626   73.9353   -5.3695 C.3     1  UNL1        0.1713
     10 C          20.8795   73.4440   -6.1774 C.3     1  UNL1        0.1895
     11 C          22.1750   72.8675   -4.2885 C.3     1  UNL1        0.1764
     12 C          21.0799   71.9383   -6.1459 C.3     1  UNL1        0.2383
     13 H          23.2037   74.5647   -6.8532 H       1  UNL1        0.2105
     14 H          20.7448   74.9252   -7.4578 H       1  UNL1        0.2106
     15 O          19.8025   71.1839   -8.5494 O.2     1  UNL1       -0.2464
     16 O          16.3220   69.1830   -6.2859 O.2     1  UNL1       -0.2670
     17 N          19.8391   71.2192   -6.2139 N.ar    1  UNL1       -0.2551
     18 N          18.0706   70.1881   -7.4204 N.ar    1  UNL1       -0.2743
     19 C          19.2818   70.8899   -7.4714 C.ar    1  UNL1        0.3323
     20 C          19.1884   70.8477   -5.0425 C.ar    1  UNL1        0.0869
     21 C          18.0333   70.1798   -5.0109 C.ar    1  UNL1        0.0795
     22 C          17.3843   69.7973   -6.2815 C.ar    1  UNL1        0.2626
     23 H          17.6634   69.9482   -8.2844 H       1  UNL1        0.1734
     24 O          20.9006   71.5864    0.2357 O.3     1  UNL1       -0.2703
     25 P          21.3254   72.6150    1.4081 P.3     1  UNL1        0.2208
     26 O          20.3578   72.1982    2.6359 O.co2   1  UNL1       -0.4371
     27 O          21.2414   74.0622    1.0173 O.2     1  UNL1       -0.5170
     28 O          22.7954   72.1297    1.8646 O.3     1  UNL1       -0.2858
     29 O          24.4014   73.4820    0.7652 O.3     1  UNL1       -0.3258
     30 O          26.9478   70.8319    2.6477 O.3     1  UNL1       -0.3794
     31 O          26.7533   73.5332    3.6033 O.3     1  UNL1       -0.3794
     32 O          24.4499   69.8878    1.5303 O.3     1  UNL1       -0.3775
     33 C          25.7764   71.6413    2.5137 C.3     1  UNL1        0.1715
     34 C          26.2156   73.0985    2.3574 C.3     1  UNL1        0.1694
     35 C          24.9901   71.1823    1.2872 C.3     1  UNL1        0.1967
     36 C          25.0377   73.9908    1.9433 C.3     1  UNL1        0.1761
     37 C          23.8728   72.1650    0.9322 C.3     1  UNL1        0.2704
     38 H          27.4513   71.1179    3.4250 H       1  UNL1        0.2105
     39 H          27.4959   72.9613    3.8536 H       1  UNL1        0.2105
     40 H          25.1671   69.2750    1.7536 H       1  UNL1        0.2106
     41 O          25.6514   76.1148    2.8493 O.3     1  UNL1       -0.3794
     42 C          25.4835   75.4171    1.6289 C.3     1  UNL1        0.1693
     43 H          25.9354   77.0242    2.6647 H       1  UNL1        0.2105
@<TRIPOS>UNITY_ATOM_ATTR
2 1
charge -1
26 1
charge -1
@<TRIPOS>BOND
     1    25    28    1
     2    25    24    1
     3    25    26    1
     4    25    27    2
     5     1     4    1
     6     1    24    1
     7     1     2    1
     8     1     3    2
     9     6    11    1
    10     6    12    1
    11    29    36    1
    12    29    37    1
    13     7     9    1
    14     7    13    1
    15     8    10    1
    16     8    14    1
    17    28    37    1
    18     4     5    1
    19    30    33    1
    20    30    38    1
    21    31    34    1
    22    31    39    1
    23    32    35    1
    24    32    40    1
    25    41    42    1
    26    41    43    1
    27    15    19    2
    28    16    22    2
    29    17    12    1
    30    17    19   ar
    31    17    20   ar
    32    18    19   ar
    33    18    22   ar
    34    18    23    1
    35     9    10    1
    36     9    11    1
    37    10    12    1
    38    11     5    1
    39    33    34    1
    40    33    35    1
    41    34    36    1
    42    35    37    1
    43    36    42    1
    44    20    21   ar
    45    21    22   ar
@<TRIPOS>MOLECULE
*****
 43 45 0 0 0
SMALL
GASTEIGER

@<TRIPOS>ATOM
      1 P          20.7218   72.4376   -3.2935 P.3     1  UNL1        0.2189
      2 O          21.4894   71.5632   -2.1694 O.co2   1  UNL1       -0.4371
      3 O          19.9065   73.5791   -2.7609 O.2     1  UNL1       -0.5170
      4 O          19.9089   71.3354   -4.1549 O.3     1  UNL1       -0.3112
      5 C          19.1530   70.3581   -3.4611 C.3     1  UNL1        0.1811
      6 O          17.4825   71.3713   -4.8599 O.3     1  UNL1       -0.3308
      7 O          15.4732   69.8211   -3.2629 O.3     1  UNL1       -0.3794
      8 O          15.6982   68.3350   -5.5383 O.3     1  UNL1       -0.3779
      9 C          16.7878   69.4440   -3.6689 C.3     1  UNL1        0.1713
     10 C          16.8081   69.1177   -5.1477 C.3     1  UNL1        0.1895
     11 C          17.6724   70.6828   -3.6044 C.3     1  UNL1        0.1764
     12 C          16.7980   70.5010   -5.7758 C.3     1  UNL1        0.2383
     13 H          14.8900   69.0461   -3.2957 H       1  UNL1        0.2105
     14 H          15.7502   67.4650   -5.1128 H       1  UNL1        0.2106
     15 O          15.4927   70.5893   -8.2790 O.2     1  UNL1       -0.2464
     16 O          19.4921   70.6170  -10.5693 O.2     1  UNL1       -0.2670
     17 N          17.4737   70.5324   -7.0422 N.ar    1  UNL1       -0.2551
     18 N          17.4852   70.6032   -9.4173 N.ar    1  UNL1       -0.2743
     19 C          16.7248   70.5749   -8.2413 C.ar    1  UNL1        0.3323
     20 C          18.8635   70.5212   -7.0866 C.ar    1  UNL1        0.0869
     21 C          19.5736   70.5473   -8.2164 C.ar    1  UNL1        0.0795
     22 C          18.8677   70.5923   -9.5132 C.ar    1  UNL1        0.2626
     23 H          16.9849   70.6326  -10.2651 H       1  UNL1        0.1734
     24 O          21.9152   72.8723   -4.2934 O.3     1  UNL1       -0.2703
     25 P          23.2533   73.7416   -4.0347 P.3     1  UNL1        0.2208
     26 O          24.4330   72.6366   -4.1051 O.co2   1  UNL1       -0.4371
     27 O          23.2305   74.5431   -2.7654 O.2     1  UNL1       -0.5170
     28 O          23.4361   74.6192   -5.3768 O.3     1  UNL1       -0.2858
     29 O          22.1246   75.9654   -6.8205 O.3     1  UNL1       -0.3258
     30 O          23.8421   73.4689   -9.6256 O.3     1  UNL1       -0.3794
     31 O          24.7029   76.2028   -9.4444 O.3     1  UNL1       -0.3794
     32 O          23.0250   72.4104   -7.0582 O.3     1  UNL1       -0.3775
     33 C          23.7961   74.2399   -8.4219 C.3     1  UNL1        0.1715
     34 C          23.5371   75.7002   -8.7974 C.3     1  UNL1        0.1694
     35 C          22.6759   73.7071   -7.5304 C.3     1  UNL1        0.1967
     36 C          23.2100   76.5417   -7.5564 C.3     1  UNL1        0.1761
     37 C          22.3978   74.6431   -6.3528 C.3     1  UNL1        0.2704
     38 H          24.5516   73.8017  -10.1959 H       1  UNL1        0.2105
     39 H          24.8987   75.6624  -10.2260 H       1  UNL1        0.2105
     40 H          23.1983   71.8273   -7.8131 H       1  UNL1        0.2106
     41 O          21.5273   78.2252   -7.3481 O.3     1  UNL1       -0.3794
     42 C          22.7943   77.9645   -7.9235 C.3     1  UNL1        0.1693
     43 H          21.2501   79.1275   -7.5731 H       1  UNL1        0.2105
@<TRIPOS>UNITY_ATOM_ATTR
2 1
charge -1
26 1
charge -1
@<TRIPOS>BOND
     1    25    28    1
     2    25    24    1
     3    25    26    1
     4    25    27    2
     5     1     4    1
     6     1    24    1
     7     1     2    1
     8     1     3    2
     9     6    11    1
    10     6    12    1
    11    29    36    1
    12    29    37    1
    13     7     9    1
    14     7    13    1
    15     8    10    1
    16     8    14    1
    17    28    37    1
    18     4     5    1
    19    30    33    1
    20    30    38    1
    21    31    34    1
    22    31    39    1
    23    32    35    1
    24    32    40    1
    25    41    42    1
    26    41    43    1
    27    15    19    2
    28    16    22    2
    29    17    12    1
    30    17    19   ar
    31    17    20   ar
    32    18    19   ar
    33    18    22   ar
    34    18    23    1
    35     9    10    1
    36     9    11    1
    37    10    12    1
    38    11     5    1
    39    33    34    1
    40    33    35    1
    41    34    36    1
    42    35    37    1
    43    36    42    1
    44    20    21   ar
    45    21    22   ar
@<TRIPOS>MOLECULE
*****
 43 45 0 0 0
SMALL
GASTEIGER

@<TRIPOS>ATOM
      1 P          23.0254   73.8584   -4.1355 P.3     1  UNL1        0.2189
      2 O          23.9868   72.5894   -4.4229 O.co2   1  UNL1       -0.4371
      3 O          23.5886   75.1865   -4.5481 O.2     1  UNL1       -0.5170
      4 O          22.6465   73.7118   -2.5694 O.3     1  UNL1       -0.3112
      5 C          22.0341   74.8101   -1.9162 C.3     1  UNL1        0.1811
      6 O          21.1668   73.0036   -0.5903 O.3     1  UNL1       -0.3308
      7 O          19.1451   74.9698    0.4282 O.3     1  UNL1       -0.3794
      8 O          20.9577   74.8729    2.4633 O.3     1  UNL1       -0.3779
      9 C          20.5159   75.1777    0.0920 C.3     1  UNL1        0.1713
     10 C          21.4143   74.5850    1.1574 C.3     1  UNL1        0.1895
     11 C          20.8396   74.3083   -1.1167 C.3     1  UNL1        0.1764
     12 C          21.3547   73.1024    0.8308 C.3     1  UNL1        0.2383
     13 H          18.9148   75.5150    1.1974 H       1  UNL1        0.2105
     14 H          21.0152   75.8279    2.6229 H       1  UNL1        0.2106
     15 O          21.5792   70.2974    1.0738 O.2     1  UNL1       -0.2464
     16 O          26.0354   70.5695    2.2182 O.2     1  UNL1       -0.2670
     17 N          22.5619   72.4134    1.1906 N.ar    1  UNL1       -0.2551
     18 N          23.7979   70.4351    1.6433 N.ar    1  UNL1       -0.2743
     19 C          22.5680   71.0023    1.2860 C.ar    1  UNL1        0.3323
     20 C          23.7228   73.1358    1.4441 C.ar    1  UNL1        0.0869
     21 C          24.8873   72.5799    1.7850 C.ar    1  UNL1        0.0795
     22 C          24.9790   71.1106    1.9065 C.ar    1  UNL1        0.2626
     23 H          23.8259   69.4535    1.7162 H       1  UNL1        0.1734
     24 O          21.6510   73.4495   -4.8817 O.3     1  UNL1       -0.2703
     25 P          20.5886   72.2696   -4.5779 P.3     1  UNL1        0.2208
     26 O          19.4471   73.0136   -3.7056 O.co2   1  UNL1       -0.4371
     27 O          21.1841   71.0607   -3.9161 O.2     1  UNL1       -0.5170
     28 O          19.8868   71.9754   -6.0013 O.3     1  UNL1       -0.2858
     29 O          18.8332   69.8883   -5.6131 O.3     1  UNL1       -0.3258
     30 O          17.4097   70.6494   -9.4138 O.3     1  UNL1       -0.3794
     31 O          15.6358   70.8659   -7.1656 O.3     1  UNL1       -0.3794
     32 O          20.1332   71.3477   -8.7253 O.3     1  UNL1       -0.3775
     33 C          17.8380   70.9855   -8.0913 C.3     1  UNL1        0.1715
     34 C          16.9265   70.2665   -7.0948 C.3     1  UNL1        0.1694
     35 C          19.2887   70.5434   -7.9090 C.3     1  UNL1        0.1967
     36 C          17.4823   70.3616   -5.6675 C.3     1  UNL1        0.1761
     37 C          19.7261   70.6308   -6.4457 C.3     1  UNL1        0.2704
     38 H          16.4894   70.9279   -9.5363 H       1  UNL1        0.2105
     39 H          15.2965   70.7996   -8.0720 H       1  UNL1        0.2105
     40 H          19.8462   71.2835   -9.6491 H       1  UNL1        0.2106
     41 O          15.9123   68.5783   -5.4147 O.3     1  UNL1       -0.3794
     42 C          16.6747   69.5196   -4.6820 C.3     1  UNL1        0.1693
     43 H          15.3933   68.0351   -4.8004 H       1  UNL1        0.2105
@<TRIPOS>UNITY_ATOM_ATTR
2 1
charge -1
26 1
charge -1
@<TRIPOS>BOND
     1    25    28    1
     2    25    24    1
     3    25    26    1
     4    25    27    2
     5     1     4    1
     6     1    24    1
     7     1     2    1
     8     1     3    2
     9     6    11    1
    10     6    12    1
    11    29    36    1
    12    29    37    1
    13     7     9    1
    14     7    13    1
    15     8    10    1
    16     8    14    1
    17    28    37    1
    18     4     5    1
    19    30    33    1
    20    30    38    1
    21    31    34    1
    22    31    39    1
    23    32    35    1
    24    32    40    1
    25    41    42    1
    26    41    43    1
    27    15    19    2
    28    16    22    2
    29    17    12    1
    30    17    19   ar
    31    17    20   ar
    32    18    19   ar
    33    18    22   ar
    34    18    23    1
    35     9    10    1
    36     9    11    1
    37    10    12    1
    38    11     5    1
    39    33    34    1
    40    33    35    1
    41    34    36    1
    42    35    37    1
    43    36    42    1
    44    20    21   ar
    45    21    22   ar
@<TRIPOS>MOLECULE
*****
 43 45 0 0 0
SMALL
GASTEIGER

@<TRIPOS>ATOM
      1 P          21.8514   72.3905   -5.6178 P.3     1  UNL1        0.2189
      2 O          21.1317   73.7915   -5.2478 O.co2   1  UNL1       -0.4371
      3 O          23.0986   72.5171   -6.4423 O.2     1  UNL1       -0.5170
      4 O          20.6649   71.5046   -6.2698 O.3     1  UNL1       -0.3112
      5 C          20.1443   71.8938   -7.5289 C.3     1  UNL1        0.1811
      6 O          18.8878   69.8815   -7.1475 O.3     1  UNL1       -0.3308
      7 O          18.1741   69.9982  -10.0575 O.3     1  UNL1       -0.3794
      8 O          15.9315   70.9796   -8.8556 O.3     1  UNL1       -0.3779
      9 C          18.3461   71.0661   -9.1272 C.3     1  UNL1        0.1713
     10 C          17.1642   71.1362   -8.1828 C.3     1  UNL1        0.1895
     11 C          19.4835   70.6897   -8.1859 C.3     1  UNL1        0.1764
     12 C          17.4573   69.9932   -7.2259 C.3     1  UNL1        0.2383
     13 H          17.4530   70.2158  -10.6695 H       1  UNL1        0.2105
     14 H          15.7908   71.7314   -9.4522 H       1  UNL1        0.2106
     15 O          16.3379   68.0012   -5.5654 O.2     1  UNL1       -0.2464
     16 O          15.4856   71.0293   -2.1971 O.2     1  UNL1       -0.2670
     17 N          16.9355   70.2331   -5.9100 N.ar    1  UNL1       -0.2551
     18 N          15.9146   69.5106   -3.8896 N.ar    1  UNL1       -0.2743
     19 C          16.3943   69.1637   -5.1590 C.ar    1  UNL1        0.3323
     20 C          16.9639   71.5171   -5.3767 C.ar    1  UNL1        0.0869
     21 C          16.5013   71.8316   -4.1650 C.ar    1  UNL1        0.0795
     22 C          15.9195   70.7721   -3.3158 C.ar    1  UNL1        0.2626
     23 H          15.5327   68.7818   -3.3485 H       1  UNL1        0.1734
     24 O          22.0678   71.7002   -4.1722 O.3     1  UNL1       -0.2703
     25 P          23.2546   71.8602   -3.0865 P.3     1  UNL1        0.2208
     26 O          23.9497   73.2613   -3.5002 O.co2   1  UNL1       -0.4371
     27 O          24.1982   70.6938   -3.0299 O.2     1  UNL1       -0.5170
     28 O          22.4971   72.1757   -1.6967 O.3     1  UNL1       -0.2858
     29 O          22.3189   74.0108   -0.2077 O.3     1  UNL1       -0.3258
     30 O          23.0855   71.0139    2.5276 O.3     1  UNL1       -0.3794
     31 O          20.4493   72.1411    2.3608 O.3     1  UNL1       -0.3794
     32 O          24.4343   71.0107   -0.0338 O.3     1  UNL1       -0.3775
     33 C          22.5357   71.5798    1.3348 C.3     1  UNL1        0.1715
     34 C          21.5922   72.7162    1.7338 C.3     1  UNL1        0.1694
     35 C          23.6732   72.1068    0.4620 C.3     1  UNL1        0.1967
     36 C          21.1717   73.5424    0.5108 C.3     1  UNL1        0.1761
     37 C          23.1487   72.9557   -0.6976 C.3     1  UNL1        0.2704
     38 H          22.3685   70.6770    3.0860 H       1  UNL1        0.2105
     39 H          20.7286   71.6217    3.1311 H       1  UNL1        0.2105
     40 H          24.7608   70.4814    0.7099 H       1  UNL1        0.2106
     41 O          19.2271   74.8547    0.0575 O.3     1  UNL1       -0.3794
     42 C          20.3586   74.7737    0.9045 C.3     1  UNL1        0.1693
     43 H          18.7000   75.6335    0.2967 H       1  UNL1        0.2105
@<TRIPOS>UNITY_ATOM_ATTR
2 1
charge -1
26 1
charge -1
@<TRIPOS>BOND
     1    25    28    1
     2    25    24    1
     3    25    26    1
     4    25    27    2
     5     1     4    1
     6     1    24    1
     7     1     2    1
     8     1     3    2
     9     6    11    1
    10     6    12    1
    11    29    36    1
    12    29    37    1
    13     7     9    1
    14     7    13    1
    15     8    10    1
    16     8    14    1
    17    28    37    1
    18     4     5    1
    19    30    33    1
    20    30    38    1
    21    31    34    1
    22    31    39    1
    23    32    35    1
    24    32    40    1
    25    41    42    1
    26    41    43    1
    27    15    19    2
    28    16    22    2
    29    17    12    1
    30    17    19   ar
    31    17    20   ar
    32    18    19   ar
    33    18    22   ar
    34    18    23    1
    35     9    10    1
    36     9    11    1
    37    10    12    1
    38    11     5    1
    39    33    34    1
    40    33    35    1
    41    34    36    1
    42    35    37    1
    43    36    42    1
    44    20    21   ar
    45    21    22   ar
@<TRIPOS>MOLECULE
*****
 43 45 0 0 0
SMALL
GASTEIGER

@<TRIPOS>ATOM
      1 P          19.5532   73.2912   -1.5690 P.3     1  UNL1        0.2189
      2 O          18.7274   73.2471   -0.1785 O.co2   1  UNL1       -0.4371
      3 O          19.3535   74.5342   -2.3855 O.2     1  UNL1       -0.5170
      4 O          19.1609   71.9011   -2.2980 O.3     1  UNL1       -0.3112
      5 C          18.9044   71.9173   -3.6915 C.3     1  UNL1        0.1811
      6 O          17.1459   72.1182   -5.3166 O.3     1  UNL1       -0.3308
      7 O          15.4179   70.6531   -3.3524 O.3     1  UNL1       -0.3794
      8 O          16.0934   68.6950   -5.1260 O.3     1  UNL1       -0.3779
      9 C          16.8051   70.4809   -3.6377 C.3     1  UNL1        0.1713
     10 C          16.9852   69.7796   -4.9678 C.3     1  UNL1        0.1895
     11 C          17.4003   71.8549   -3.9194 C.3     1  UNL1        0.1764
     12 C          16.7198   70.9035   -5.9551 C.3     1  UNL1        0.2383
     13 H          15.0160   69.7890   -3.1688 H       1  UNL1        0.2105
     14 H          16.3029   68.0065   -4.4758 H       1  UNL1        0.2106
     15 O          15.5290   70.7190   -8.5097 O.2     1  UNL1       -0.2464
     16 O          19.6196   70.2753  -10.5861 O.2     1  UNL1       -0.2670
     17 N          17.4499   70.7398   -7.1805 N.ar    1  UNL1       -0.2551
     18 N          17.5668   70.4984   -9.5415 N.ar    1  UNL1       -0.2743
     19 C          16.7562   70.6570   -8.4102 C.ar    1  UNL1        0.3323
     20 C          18.8382   70.6635   -7.1550 C.ar    1  UNL1        0.0869
     21 C          19.5965   70.5109   -8.2426 C.ar    1  UNL1        0.0795
     22 C          18.9500   70.4159   -9.5674 C.ar    1  UNL1        0.2626
     23 H          17.1053   70.4380  -10.4094 H       1  UNL1        0.1734
     24 O          21.0772   73.0354   -1.0948 O.3     1  UNL1       -0.2703
     25 P          21.7090   71.9233   -0.1063 P.3     1  UNL1        0.2208
     26 O          23.3007   72.0623   -0.3605 O.co2   1  UNL1       -0.4371
     27 O          21.1675   70.5383   -0.3123 O.2     1  UNL1       -0.5170
     28 O          21.4796   72.5175    1.3767 O.3     1  UNL1       -0.2858
     29 O          22.1227   74.6179    2.2662 O.3     1  UNL1       -0.3258
     30 O          22.6292   72.2901    5.6389 O.3     1  UNL1       -0.3794
     31 O          20.4183   74.1176    5.4963 O.3     1  UNL1       -0.3794
     32 O          23.3451   71.2393    3.0384 O.3     1  UNL1       -0.3775
     33 C          22.0078   72.6939    4.4158 C.3     1  UNL1        0.1715
     34 C          21.5110   74.1314    4.5819 C.3     1  UNL1        0.1694
     35 C          23.0297   72.6056    3.2838 C.3     1  UNL1        0.1967
     36 C          21.0742   74.7256    3.2361 C.3     1  UNL1        0.1761
     37 C          22.5149   73.2689    2.0051 C.3     1  UNL1        0.2704
     38 H          21.9855   72.3433    6.3617 H       1  UNL1        0.2105
     39 H          20.7073   73.7396    6.3418 H       1  UNL1        0.2105
     40 H          23.6701   70.8308    3.8553 H       1  UNL1        0.2106
     41 O          19.3812   76.3195    3.7859 O.3     1  UNL1       -0.3794
     42 C          20.7242   76.2075    3.3520 C.3     1  UNL1        0.1693
     43 H          19.1446   77.2573    3.8644 H       1  UNL1        0.2105
@<TRIPOS>UNITY_ATOM_ATTR
2 1
charge -1
26 1
charge -1
@<TRIPOS>BOND
     1    25    28    1
     2    25    24    1
     3    25    26    1
     4    25    27    2
     5     1     4    1
     6     1    24    1
     7     1     2    1
     8     1     3    2
     9     6    11    1
    10     6    12    1
    11    29    36    1
    12    29    37    1
    13     7     9    1
    14     7    13    1
    15     8    10    1
    16     8    14    1
    17    28    37    1
    18     4     5    1
    19    30    33    1
    20    30    38    1
    21    31    34    1
    22    31    39    1
    23    32    35    1
    24    32    40    1
    25    41    42    1
    26    41    43    1
    27    15    19    2
    28    16    22    2
    29    17    12    1
    30    17    19   ar
    31    17    20   ar
    32    18    19   ar
    33    18    22   ar
    34    18    23    1
    35     9    10    1
    36     9    11    1
    37    10    12    1
    38    11     5    1
    39    33    34    1
    40    33    35    1
    41    34    36    1
    42    35    37    1
    43    36    42    1
    44    20    21   ar
    45    21    22   ar
@<TRIPOS>MOLECULE
*****
 43 45 0 0 0
SMALL
GASTEIGER

@<TRIPOS>ATOM
      1 P          23.5500   73.6784   -3.7677 P.3     1  UNL1        0.2189
      2 O          24.2031   72.1993   -3.7114 O.co2   1  UNL1       -0.4371
      3 O          24.4193   74.7318   -4.3891 O.2     1  UNL1       -0.5170
      4 O          23.0891   73.9578   -2.2421 O.3     1  UNL1       -0.3112
      5 C          22.1267   74.9695   -2.0011 C.3     1  UNL1        0.1811
      6 O          21.2195   73.0085   -0.9497 O.3     1  UNL1       -0.3308
      7 O          18.9542   74.7609   -0.0620 O.3     1  UNL1       -0.3794
      8 O          20.4902   74.5914    2.1848 O.3     1  UNL1       -0.3779
      9 C          20.3397   75.0747   -0.1932 C.3     1  UNL1        0.1713
     10 C          21.1306   74.4441    0.9338 C.3     1  UNL1        0.1895
     11 C          20.8754   74.3332   -1.4116 C.3     1  UNL1        0.1764
     12 C          21.2146   72.9944    0.4871 C.3     1  UNL1        0.2383
     13 H          18.5897   75.2234    0.7095 H       1  UNL1        0.2105
     14 H          20.4617   75.5307    2.4250 H       1  UNL1        0.2106
     15 O          21.4443   70.2191    0.9590 O.2     1  UNL1       -0.2464
     16 O          25.8451   70.6203    2.2680 O.2     1  UNL1       -0.2670
     17 N          22.4090   72.3466    0.9512 N.ar    1  UNL1       -0.2551
     18 N          23.6354   70.4211    1.6102 N.ar    1  UNL1       -0.2743
     19 C          22.4189   70.9474    1.1573 C.ar    1  UNL1        0.3323
     20 C          23.5537   73.0971    1.1966 C.ar    1  UNL1        0.0869
     21 C          24.7055   72.5802    1.6295 C.ar    1  UNL1        0.0795
     22 C          24.8002   71.1258    1.8699 C.ar    1  UNL1        0.2626
     23 H          23.6659   69.4484    1.7612 H       1  UNL1        0.1734
     24 O          22.1473   73.4275   -4.5309 O.3     1  UNL1       -0.2703
     25 P          21.8137   73.2243   -6.0994 P.3     1  UNL1        0.2208
     26 O          23.0374   72.3045   -6.6229 O.co2   1  UNL1       -0.4371
     27 O          21.6321   74.5054   -6.8609 O.2     1  UNL1       -0.5170
     28 O          20.5302   72.2459   -6.1208 O.3     1  UNL1       -0.2858
     29 O          18.4276   72.5776   -7.1627 O.3     1  UNL1       -0.3258
     30 O          17.1882   70.4808   -3.8284 O.3     1  UNL1       -0.3794
     31 O          17.1700   69.1979   -6.3978 O.3     1  UNL1       -0.3794
     32 O          19.3133   72.4329   -3.5990 O.3     1  UNL1       -0.3775
     33 C          18.0756   70.8244   -4.8960 C.3     1  UNL1        0.1715
     34 C          17.3421   70.6012   -6.2200 C.3     1  UNL1        0.1694
     35 C          18.4887   72.2878   -4.7503 C.3     1  UNL1        0.1967
     36 C          18.1281   71.1964   -7.3959 C.3     1  UNL1        0.1761
     37 C          19.2209   72.7945   -5.9942 C.3     1  UNL1        0.2704
     38 H          16.9224   69.5527   -3.9147 H       1  UNL1        0.2105
     39 H          16.6728   68.8344   -5.6483 H       1  UNL1        0.2105
     40 H          18.8384   72.1089   -2.8184 H       1  UNL1        0.2106
     41 O          16.0166   70.7249   -8.4099 O.3     1  UNL1       -0.3794
     42 C          17.3425   71.1250   -8.7035 C.3     1  UNL1        0.1693
     43 H          15.5047   70.6754   -9.2328 H       1  UNL1        0.2105
@<TRIPOS>UNITY_ATOM_ATTR
2 1
charge -1
26 1
charge -1
@<TRIPOS>BOND
     1    25    28    1
     2    25    24    1
     3    25    26    1
     4    25    27    2
     5     1     4    1
     6     1    24    1
     7     1     2    1
     8     1     3    2
     9     6    11    1
    10     6    12    1
    11    29    36    1
    12    29    37    1
    13     7     9    1
    14     7    13    1
    15     8    10    1
    16     8    14    1
    17    28    37    1
    18     4     5    1
    19    30    33    1
    20    30    38    1
    21    31    34    1
    22    31    39    1
    23    32    35    1
    24    32    40    1
    25    41    42    1
    26    41    43    1
    27    15    19    2
    28    16    22    2
    29    17    12    1
    30    17    19   ar
    31    17    20   ar
    32    18    19   ar
    33    18    22   ar
    34    18    23    1
    35     9    10    1
    36     9    11    1
    37    10    12    1
    38    11     5    1
    39    33    34    1
    40    33    35    1
    41    34    36    1
    42    35    37    1
    43    36    42    1
    44    20    21   ar
    45    21    22   ar
@<TRIPOS>MOLECULE
*****
 43 45 0 0 0
SMALL
GASTEIGER

@<TRIPOS>ATOM
      1 P          23.0138   71.8982   -3.4701 P.3     1  UNL1        0.2189
      2 O          24.1267   70.7897   -3.0825 O.co2   1  UNL1       -0.4371
      3 O          23.3569   72.7536   -4.6541 O.2     1  UNL1       -0.5170
      4 O          22.7545   72.6897   -2.0829 O.3     1  UNL1       -0.3112
      5 C          23.7262   72.5909   -1.0563 C.3     1  UNL1        0.1811
      6 O          24.5421   71.1473    0.6827 O.3     1  UNL1       -0.3308
      7 O          21.6981   70.2600    1.0228 O.3     1  UNL1       -0.3794
      8 O          22.0217   72.0202    3.0804 O.3     1  UNL1       -0.3779
      9 C          22.2074   71.5534    0.7016 C.3     1  UNL1        0.1713
     10 C          22.8202   72.1967    1.9280 C.3     1  UNL1        0.1895
     11 C          23.4211   71.3689   -0.2008 C.3     1  UNL1        0.1764
     12 C          24.1556   71.4789    2.0264 C.3     1  UNL1        0.2383
     13 H          20.9221   70.3521    1.5983 H       1  UNL1        0.2105
     14 H          21.1836   72.4955    2.9691 H       1  UNL1        0.2106
     15 O          26.8337   70.6662    2.4072 O.2     1  UNL1       -0.2464
     16 O          27.9831   74.7077    4.3011 O.2     1  UNL1       -0.2670
     17 N          25.1760   72.2988    2.6163 N.ar    1  UNL1       -0.2551
     18 N          27.4039   72.6793    3.3497 N.ar    1  UNL1       -0.2743
     19 C          26.4895   71.7952    2.7628 C.ar    1  UNL1        0.3323
     20 C          24.8700   73.5868    3.0420 C.ar    1  UNL1        0.0869
     21 C          25.7531   74.4168    3.6009 C.ar    1  UNL1        0.0795
     22 C          27.1477   73.9681    3.7902 C.ar    1  UNL1        0.2626
     23 H          28.3251   72.3500    3.4623 H       1  UNL1        0.1734
     24 O          21.6690   71.0181   -3.6430 O.3     1  UNL1       -0.2703
     25 P          20.1460   71.3053   -3.1839 P.3     1  UNL1        0.2208
     26 O          20.0777   72.9203   -3.1146 O.co2   1  UNL1       -0.4371
     27 O          19.7455   70.6135   -1.9131 O.2     1  UNL1       -0.5170
     28 O          19.2513   70.9142   -4.4689 O.3     1  UNL1       -0.2858
     29 O          19.0290   71.4731   -6.7613 O.3     1  UNL1       -0.3258
     30 O          15.1313   72.0971   -5.5490 O.3     1  UNL1       -0.3794
     31 O          15.7641   69.8102   -7.1669 O.3     1  UNL1       -0.3794
     32 O          17.3215   72.8417   -3.8088 O.3     1  UNL1       -0.3775
     33 C          16.4077   71.4521   -5.5511 C.3     1  UNL1        0.1715
     34 C          16.6618   70.8960   -6.9536 C.3     1  UNL1        0.1694
     35 C          17.4821   72.4702   -5.1736 C.3     1  UNL1        0.1967
     36 C          18.1146   70.4266   -7.1086 C.3     1  UNL1        0.1761
     37 C          18.8897   71.9204   -5.4113 C.3     1  UNL1        0.2704
     38 H          14.4446   71.4560   -5.7875 H       1  UNL1        0.2105
     39 H          14.8503   70.1199   -7.0656 H       1  UNL1        0.2105
     40 H          16.4266   73.1884   -3.6714 H       1  UNL1        0.2106
     41 O          17.3239   70.3425   -9.3618 O.3     1  UNL1       -0.3794
     42 C          18.4325   70.0149   -8.5444 C.3     1  UNL1        0.1693
     43 H          17.5121   70.0863  -10.2787 H       1  UNL1        0.2105
@<TRIPOS>UNITY_ATOM_ATTR
2 1
charge -1
26 1
charge -1
@<TRIPOS>BOND
     1    25    28    1
     2    25    24    1
     3    25    26    1
     4    25    27    2
     5     1     4    1
     6     1    24    1
     7     1     2    1
     8     1     3    2
     9     6    11    1
    10     6    12    1
    11    29    36    1
    12    29    37    1
    13     7     9    1
    14     7    13    1
    15     8    10    1
    16     8    14    1
    17    28    37    1
    18     4     5    1
    19    30    33    1
    20    30    38    1
    21    31    34    1
    22    31    39    1
    23    32    35    1
    24    32    40    1
    25    41    42    1
    26    41    43    1
    27    15    19    2
    28    16    22    2
    29    17    12    1
    30    17    19   ar
    31    17    20   ar
    32    18    19   ar
    33    18    22   ar
    34    18    23    1
    35     9    10    1
    36     9    11    1
    37    10    12    1
    38    11     5    1
    39    33    34    1
    40    33    35    1
    41    34    36    1
    42    35    37    1
    43    36    42    1
    44    20    21   ar
    45    21    22   ar
@<TRIPOS>MOLECULE
*****
 43 45 0 0 0
SMALL
GASTEIGER

@<TRIPOS>ATOM
      1 P          21.9568   71.9716   -2.4187 P.3     1  UNL1        0.2189
      2 O          22.5764   73.2567   -3.1817 O.co2   1  UNL1       -0.4371
      3 O          22.5707   70.6549   -2.7941 O.2     1  UNL1       -0.5170
      4 O          20.3638   72.1013   -2.6703 O.3     1  UNL1       -0.3112
      5 C          19.6270   70.9259   -2.9592 C.3     1  UNL1        0.1811
      6 O          17.8541   71.8763   -4.2736 O.3     1  UNL1       -0.3308
      7 O          15.9718   70.4691   -2.4114 O.3     1  UNL1       -0.3794
      8 O          15.9805   68.8350   -4.5945 O.3     1  UNL1       -0.3779
      9 C          17.2416   70.0429   -2.9027 C.3     1  UNL1        0.1713
     10 C          17.1296   69.6212   -4.3530 C.3     1  UNL1        0.1895
     11 C          18.1436   71.2672   -2.9963 C.3     1  UNL1        0.1764
     12 C          17.0822   70.9609   -5.0679 C.3     1  UNL1        0.2383
     13 H          15.3785   69.7042   -2.3428 H       1  UNL1        0.2105
     14 H          16.0584   67.9935   -4.1184 H       1  UNL1        0.2106
     15 O          19.7767   70.3212   -5.6229 O.2     1  UNL1       -0.2464
     16 O          19.1342   70.7513  -10.1664 O.2     1  UNL1       -0.2670
     17 N          17.6458   70.8980   -6.3869 N.ar    1  UNL1       -0.2551
     18 N          19.4545   70.5357   -7.8848 N.ar    1  UNL1       -0.2743
     19 C          19.0108   70.5685   -6.5566 C.ar    1  UNL1        0.3323
     20 C          16.8477   71.1612   -7.4949 C.ar    1  UNL1        0.0869
     21 C          17.2865   71.1270   -8.7548 C.ar    1  UNL1        0.0795
     22 C          18.7004   70.7908   -9.0192 C.ar    1  UNL1        0.2626
     23 H          20.4021   70.3087   -8.0274 H       1  UNL1        0.1734
     24 O          22.1115   72.3657   -0.8587 O.3     1  UNL1       -0.2703
     25 P          21.1520   72.0761    0.4096 P.3     1  UNL1        0.2208
     26 O          21.0898   70.4604    0.4665 O.co2   1  UNL1       -0.4371
     27 O          19.8103   72.7452    0.3316 O.2     1  UNL1       -0.5170
     28 O          22.0349   72.4955    1.6939 O.3     1  UNL1       -0.2858
     29 O          21.1691   74.3763    2.8470 O.3     1  UNL1       -0.3258
     30 O          24.8671   74.1310    4.6678 O.3     1  UNL1       -0.3794
     31 O          22.5143   73.3699    6.1283 O.3     1  UNL1       -0.3794
     32 O          24.6139   73.5927    1.8348 O.3     1  UNL1       -0.3775
     33 C          23.6802   73.6203    4.0549 C.3     1  UNL1        0.1715
     34 C          22.4785   74.0705    4.8880 C.3     1  UNL1        0.1694
     35 C          23.5806   74.1632    2.6305 C.3     1  UNL1        0.1967
     36 C          21.1599   73.7910    4.1544 C.3     1  UNL1        0.1761
     37 C          22.2126   73.8738    2.0101 C.3     1  UNL1        0.2704
     38 H          24.9366   73.7897    5.5723 H       1  UNL1        0.2105
     39 H          23.3522   73.5546    6.5812 H       1  UNL1        0.2105
     40 H          25.4748   73.7832    2.2379 H       1  UNL1        0.2106
     41 O          18.8057   73.6363    4.5323 O.3     1  UNL1       -0.3794
     42 C          19.9584   74.3736    4.8955 C.3     1  UNL1        0.1693
     43 H          18.0331   73.9958    4.9967 H       1  UNL1        0.2105
@<TRIPOS>UNITY_ATOM_ATTR
2 1
charge -1
26 1
charge -1
@<TRIPOS>BOND
     1    25    28    1
     2    25    24    1
     3    25    26    1
     4    25    27    2
     5     1     4    1
     6     1    24    1
     7     1     2    1
     8     1     3    2
     9     6    11    1
    10     6    12    1
    11    29    36    1
    12    29    37    1
    13     7     9    1
    14     7    13    1
    15     8    10    1
    16     8    14    1
    17    28    37    1
    18     4     5    1
    19    30    33    1
    20    30    38    1
    21    31    34    1
    22    31    39    1
    23    32    35    1
    24    32    40    1
    25    41    42    1
    26    41    43    1
    27    15    19    2
    28    16    22    2
    29    17    12    1
    30    17    19   ar
    31    17    20   ar
    32    18    19   ar
    33    18    22   ar
    34    18    23    1
    35     9    10    1
    36     9    11    1
    37    10    12    1
    38    11     5    1
    39    33    34    1
    40    33    35    1
    41    34    36    1
    42    35    37    1
    43    36    42    1
    44    20    21   ar
    45    21    22   ar
@<TRIPOS>MOLECULE
*****
 43 45 0 0 0
SMALL
GASTEIGER

@<TRIPOS>ATOM
      1 P          23.1267   72.8918   -4.0220 P.3     1  UNL1        0.2189
      2 O          23.0936   73.2020   -5.6094 O.co2   1  UNL1       -0.4371
      3 O          24.1565   71.8881   -3.5936 O.2     1  UNL1       -0.5170
      4 O          21.5926   72.5197   -3.6669 O.3     1  UNL1       -0.3112
      5 C          20.5559   73.1966   -4.3559 C.3     1  UNL1        0.1811
      6 O          18.3363   72.5405   -5.0016 O.3     1  UNL1       -0.3308
      7 O          18.1790   71.1472   -2.3512 O.3     1  UNL1       -0.3794
      8 O          18.6994   69.0959   -4.0712 O.3     1  UNL1       -0.3779
      9 C          19.2952   71.2968   -3.2270 C.3     1  UNL1        0.1713
     10 C          19.1459   70.3879   -4.4292 C.3     1  UNL1        0.1895
     11 C          19.2119   72.6796   -3.8613 C.3     1  UNL1        0.1764
     12 C          18.1326   71.1440   -5.2718 C.3     1  UNL1        0.2383
     13 H          18.2107   70.2715   -1.9340 H       1  UNL1        0.2105
     14 H          19.3784   68.6557   -3.5364 H       1  UNL1        0.2106
     15 O          16.0126   70.8472   -7.1144 O.2     1  UNL1       -0.2464
     16 O          18.9188   70.2513  -10.6416 O.2     1  UNL1       -0.2670
     17 N          18.3066   70.9108   -6.6777 N.ar    1  UNL1       -0.2551
     18 N          17.4614   70.5509   -8.8692 N.ar    1  UNL1       -0.2743
     19 C          17.1758   70.7753   -7.5164 C.ar    1  UNL1        0.3323
     20 C          19.5874   70.8190   -7.2117 C.ar    1  UNL1        0.0869
     21 C          19.8427   70.6034   -8.5038 C.ar    1  UNL1        0.0795
     22 C          18.7168   70.4505   -9.4477 C.ar    1  UNL1        0.2626
     23 H          16.6891   70.4530   -9.4723 H       1  UNL1        0.1734
     24 O          23.3052   74.3595   -3.3685 O.3     1  UNL1       -0.2703
     25 P          23.4746   74.8226   -1.8291 P.3     1  UNL1        0.2208
     26 O          22.4476   76.0661   -1.7006 O.co2   1  UNL1       -0.4371
     27 O          24.8873   75.1429   -1.4347 O.2     1  UNL1       -0.5170
     28 O          22.7919   73.6396   -0.9691 O.3     1  UNL1       -0.2858
     29 O          23.8518   73.3158    1.1258 O.3     1  UNL1       -0.3258
     30 O          21.4594   69.9506    1.0695 O.3     1  UNL1       -0.3794
     31 O          20.8070   72.1249    2.8287 O.3     1  UNL1       -0.3794
     32 O          22.7261   70.8627   -1.3684 O.3     1  UNL1       -0.3775
     33 C          21.7941   71.3159    0.8059 C.3     1  UNL1        0.1715
     34 C          22.0511   72.0134    2.1431 C.3     1  UNL1        0.1694
     35 C          23.0421   71.3629   -0.0737 C.3     1  UNL1        0.1967
     36 C          22.6721   73.4011    1.9337 C.3     1  UNL1        0.1761
     37 C          23.6075   72.7806   -0.1765 C.3     1  UNL1        0.2704
     38 H          20.6674   69.9137    1.6272 H       1  UNL1        0.2105
     39 H          20.4253   71.2419    2.9541 H       1  UNL1        0.2105
     40 H          22.3694   69.9646   -1.2897 H       1  UNL1        0.2106
     41 O          23.8784   75.1847    2.9694 O.3     1  UNL1       -0.3794
     42 C          23.0818   74.0495    3.2543 C.3     1  UNL1        0.1693
     43 H          24.1463   75.6077    3.8006 H       1  UNL1        0.2105
@<TRIPOS>UNITY_ATOM_ATTR
2 1
charge -1
26 1
charge -1
@<TRIPOS>BOND
     1    25    28    1
     2    25    24    1
     3    25    26    1
     4    25    27    2
     5     1     4    1
     6     1    24    1
     7     1     2    1
     8     1     3    2
     9     6    11    1
    10     6    12    1
    11    29    36    1
    12    29    37    1
    13     7     9    1
    14     7    13    1
    15     8    10    1
    16     8    14    1
    17    28    37    1
    18     4     5    1
    19    30    33    1
    20    30    38    1
    21    31    34    1
    22    31    39    1
    23    32    35    1
    24    32    40    1
    25    41    42    1
    26    41    43    1
    27    15    19    2
    28    16    22    2
    29    17    12    1
    30    17    19   ar
    31    17    20   ar
    32    18    19   ar
    33    18    22   ar
    34    18    23    1
    35     9    10    1
    36     9    11    1
    37    10    12    1
    38    11     5    1
    39    33    34    1
    40    33    35    1
    41    34    36    1
    42    35    37    1
    43    36    42    1
    44    20    21   ar
    45    21    22   ar
@<TRIPOS>MOLECULE
*****
 43 45 0 0 0
SMALL
GASTEIGER

@<TRIPOS>ATOM
      1 P          17.2429   69.3241   -3.2361 P.3     1  UNL1        0.2189
      2 O          16.9105   68.5152   -1.8750 O.co2   1  UNL1       -0.4371
      3 O          16.4282   68.9190   -4.4292 O.2     1  UNL1       -0.5170
      4 O          18.8459   69.1733   -3.3959 O.3     1  UNL1       -0.3112
      5 C          19.6754   70.2082   -2.8971 C.3     1  UNL1        0.1811
      6 O          20.4584   69.9448   -5.1535 O.3     1  UNL1       -0.3308
      7 O          22.6334   71.8762   -4.4257 O.3     1  UNL1       -0.3794
      8 O          20.8762   73.4485   -5.7957 O.3     1  UNL1       -0.3779
      9 C          21.2704   71.8519   -4.0049 C.3     1  UNL1        0.1713
     10 C          20.3651   72.3127   -5.1281 C.3     1  UNL1        0.1895
     11 C          20.8562   70.3950   -3.8400 C.3     1  UNL1        0.1764
     12 C          20.3174   71.0831   -6.0191 C.3     1  UNL1        0.2383
     13 H          22.9207   72.7965   -4.5375 H       1  UNL1        0.2105
     14 H          20.8864   74.2039   -5.1874 H       1  UNL1        0.2106
     15 O          20.0022   69.6975   -8.4602 O.2     1  UNL1       -0.2464
     16 O          15.5158   70.7300   -8.6780 O.2     1  UNL1       -0.2670
     17 N          19.0779   70.9735   -6.7354 N.ar    1  UNL1       -0.2551
     18 N          17.7686   70.2126   -8.5665 N.ar    1  UNL1       -0.2743
     19 C          19.0271   70.2559   -7.9532 C.ar    1  UNL1        0.3323
     20 C          17.9298   71.5732   -6.2295 C.ar    1  UNL1        0.0869
     21 C          16.7375   71.5237   -6.8272 C.ar    1  UNL1        0.0795
     22 C          16.5985   70.7937   -8.1038 C.ar    1  UNL1        0.2626
     23 H          17.7092   69.7186   -9.4163 H       1  UNL1        0.1734
     24 O          17.0656   70.8687   -2.7935 O.3     1  UNL1       -0.2703
     25 P          15.8251   71.6384   -2.0995 P.3     1  UNL1        0.2208
     26 O          15.0813   72.3461   -3.3498 O.co2   1  UNL1       -0.4371
     27 O          16.2229   72.5814   -1.0011 O.2     1  UNL1       -0.5170
     28 O          14.8201   70.4621   -1.6399 O.3     1  UNL1       -0.2858
     29 O          12.9422   71.3479   -0.4973 O.3     1  UNL1       -0.3258
     30 O          12.3050   67.3286    0.2028 O.3     1  UNL1       -0.3794
     31 O          10.6181   68.7297   -1.6517 O.3     1  UNL1       -0.3794
     32 O          14.9965   68.3931    0.2478 O.3     1  UNL1       -0.3775
     33 C          12.7253   68.4693   -0.5505 C.3     1  UNL1        0.1715
     34 C          11.5142   69.3813   -0.7557 C.3     1  UNL1        0.1694
     35 C          13.8236   69.1994    0.2203 C.3     1  UNL1        0.1967
     36 C          11.9365   70.7446   -1.3197 C.3     1  UNL1        0.1761
     37 C          14.1334   70.5651   -0.3953 C.3     1  UNL1        0.2704
     38 H          11.6080   66.8602   -0.2814 H       1  UNL1        0.2105
     39 H          10.3596   67.8700   -1.2841 H       1  UNL1        0.2105
     40 H          14.7874   67.5315    0.6399 H       1  UNL1        0.2106
     41 O          10.0896   71.5350   -2.6132 O.3     1  UNL1       -0.3794
     42 C          10.7666   71.7241   -1.3843 C.3     1  UNL1        0.1693
     43 H           9.3422   72.1516   -2.6681 H       1  UNL1        0.2105
@<TRIPOS>UNITY_ATOM_ATTR
2 1
charge -1
26 1
charge -1
@<TRIPOS>BOND
     1    25    28    1
     2    25    24    1
     3    25    26    1
     4    25    27    2
     5     1     4    1
     6     1    24    1
     7     1     2    1
     8     1     3    2
     9     6    11    1
    10     6    12    1
    11    29    36    1
    12    29    37    1
    13     7     9    1
    14     7    13    1
    15     8    10    1
    16     8    14    1
    17    28    37    1
    18     4     5    1
    19    30    33    1
    20    30    38    1
    21    31    34    1
    22    31    39    1
    23    32    35    1
    24    32    40    1
    25    41    42    1
    26    41    43    1
    27    15    19    2
    28    16    22    2
    29    17    12    1
    30    17    19   ar
    31    17    20   ar
    32    18    19   ar
    33    18    22   ar
    34    18    23    1
    35     9    10    1
    36     9    11    1
    37    10    12    1
    38    11     5    1
    39    33    34    1
    40    33    35    1
    41    34    36    1
    42    35    37    1
    43    36    42    1
    44    20    21   ar
    45    21    22   ar
@<TRIPOS>MOLECULE
*****
 43 45 0 0 0
SMALL
GASTEIGER

@<TRIPOS>ATOM
      1 P          22.7918   71.1364    1.1724 P.3     1  UNL1        0.2189
      2 O          24.1899   70.4772    1.6499 O.co2   1  UNL1       -0.4371
      3 O          21.6232   70.1955    1.1475 O.2     1  UNL1       -0.5170
      4 O          23.1563   71.8414   -0.2376 O.3     1  UNL1       -0.3112
      5 C          22.1298   71.9946   -1.2023 C.3     1  UNL1        0.1811
      6 O          21.8297   70.4293   -3.0006 O.3     1  UNL1       -0.3308
      7 O          23.4944   72.2962   -4.6542 O.3     1  UNL1       -0.3794
      8 O          20.9582   72.8838   -5.4661 O.3     1  UNL1       -0.3779
      9 C          22.5378   72.5986   -3.6399 C.3     1  UNL1        0.1713
     10 C          21.1326   72.3758   -4.1591 C.3     1  UNL1        0.1895
     11 C          22.6494   71.5328   -2.5569 C.3     1  UNL1        0.1764
     12 C          21.0108   70.8626   -4.0990 C.3     1  UNL1        0.2383
     13 H          23.4421   72.9636   -5.3569 H       1  UNL1        0.2105
     14 H          21.0448   73.8498   -5.4518 H       1  UNL1        0.2106
     15 O          19.8715   70.4576   -1.5463 O.2     1  UNL1       -0.2464
     16 O          15.8210   69.2021   -3.3516 O.2     1  UNL1       -0.2670
     17 N          19.6605   70.4304   -3.8727 N.ar    1  UNL1       -0.2551
     18 N          17.8555   69.8330   -2.4473 N.ar    1  UNL1       -0.2743
     19 C          19.1866   70.2565   -2.5514 C.ar    1  UNL1        0.3323
     20 C          18.8213   70.1841   -4.9539 C.ar    1  UNL1        0.0869
     21 C          17.5548   69.7795   -4.8376 C.ar    1  UNL1        0.0795
     22 C          16.9821   69.5738   -3.4916 C.ar    1  UNL1        0.2626
     23 H          17.5038   69.7048   -1.5364 H       1  UNL1        0.1734
     24 O          22.6219   72.3938    2.1740 O.3     1  UNL1       -0.2703
     25 P          21.3820   73.4040    2.4087 P.3     1  UNL1        0.2208
     26 O          20.2695   72.4675    3.1179 O.co2   1  UNL1       -0.4371
     27 O          20.9070   74.0950    1.1634 O.2     1  UNL1       -0.5170
     28 O          21.8816   74.3994    3.5768 O.3     1  UNL1       -0.2858
     29 O          23.9076   75.4695    4.1823 O.3     1  UNL1       -0.3258
     30 O          22.8301   73.9610    7.8720 O.3     1  UNL1       -0.3794
     31 O          22.6183   76.7819    7.3766 O.3     1  UNL1       -0.3794
     32 O          22.3672   72.3961    5.4811 O.3     1  UNL1       -0.3775
     33 C          22.6018   74.5272    6.5787 C.3     1  UNL1        0.1715
     34 C          23.3107   75.8816    6.5162 C.3     1  UNL1        0.1694
     35 C          23.1553   73.5811    5.5148 C.3     1  UNL1        0.1967
     36 C          23.3376   76.4272    5.0821 C.3     1  UNL1        0.1761
     37 C          23.1836   74.2386    4.1338 C.3     1  UNL1        0.2704
     38 H          22.4805   74.5566    8.5521 H       1  UNL1        0.2105
     39 H          22.6081   76.4255    8.2789 H       1  UNL1        0.2105
     40 H          22.3575   71.9892    6.3610 H       1  UNL1        0.2106
     41 O          25.5431   77.3342    4.9327 O.3     1  UNL1       -0.3794
     42 C          24.1756   77.6989    4.9696 C.3     1  UNL1        0.1693
     43 H          26.0885   78.1336    4.8609 H       1  UNL1        0.2105
@<TRIPOS>UNITY_ATOM_ATTR
2 1
charge -1
26 1
charge -1
@<TRIPOS>BOND
     1    25    28    1
     2    25    24    1
     3    25    26    1
     4    25    27    2
     5     1     4    1
     6     1    24    1
     7     1     2    1
     8     1     3    2
     9     6    11    1
    10     6    12    1
    11    29    36    1
    12    29    37    1
    13     7     9    1
    14     7    13    1
    15     8    10    1
    16     8    14    1
    17    28    37    1
    18     4     5    1
    19    30    33    1
    20    30    38    1
    21    31    34    1
    22    31    39    1
    23    32    35    1
    24    32    40    1
    25    41    42    1
    26    41    43    1
    27    15    19    2
    28    16    22    2
    29    17    12    1
    30    17    19   ar
    31    17    20   ar
    32    18    19   ar
    33    18    22   ar
    34    18    23    1
    35     9    10    1
    36     9    11    1
    37    10    12    1
    38    11     5    1
    39    33    34    1
    40    33    35    1
    41    34    36    1
    42    35    37    1
    43    36    42    1
    44    20    21   ar
    45    21    22   ar
@<TRIPOS>MOLECULE
*****
 43 45 0 0 0
SMALL
GASTEIGER

@<TRIPOS>ATOM
      1 P          22.9892   70.9285    1.1874 P.3     1  UNL1        0.2189
      2 O          24.3156   70.0642    1.5207 O.co2   1  UNL1       -0.4371
      3 O          21.7476   70.1191    0.9535 O.2     1  UNL1       -0.5170
      4 O          23.4456   71.8843   -0.0356 O.3     1  UNL1       -0.3112
      5 C          22.5132   72.1524   -1.0684 C.3     1  UNL1        0.1811
      6 O          22.3470   70.6205   -2.9122 O.3     1  UNL1       -0.3308
      7 O          24.0551   72.5590   -4.4338 O.3     1  UNL1       -0.3794
      8 O          21.5537   73.1084   -5.3706 O.3     1  UNL1       -0.3779
      9 C          23.0383   72.8182   -3.4672 C.3     1  UNL1        0.1713
     10 C          21.6689   72.5760   -4.0667 C.3     1  UNL1        0.1895
     11 C          23.1159   71.7317   -2.4019 C.3     1  UNL1        0.1764
     12 C          21.5789   71.0595   -4.0445 C.3     1  UNL1        0.2383
     13 H          24.0256   73.2402   -5.1245 H       1  UNL1        0.2105
     14 H          21.6170   74.0755   -5.3318 H       1  UNL1        0.2106
     15 O          19.8161   70.5878   -6.2004 O.2     1  UNL1       -0.2464
     16 O          16.4207   69.2720   -3.3753 O.2     1  UNL1       -0.2670
     17 N          20.2286   70.5930   -3.9011 N.ar    1  UNL1       -0.2551
     18 N          18.1270   69.9329   -4.7920 N.ar    1  UNL1       -0.2743
     19 C          19.4263   70.3891   -5.0479 C.ar    1  UNL1        0.3323
     20 C          19.7129   70.3424   -2.6342 C.ar    1  UNL1        0.0869
     21 C          18.4712   69.9089   -2.4070 C.ar    1  UNL1        0.0795
     22 C          17.5679   69.6705   -3.5513 C.ar    1  UNL1        0.2626
     23 H          17.5497   69.7841   -5.5758 H       1  UNL1        0.1734
     24 O          22.8996   71.9525    2.4350 O.3     1  UNL1       -0.2703
     25 P          21.8162   73.0975    2.7928 P.3     1  UNL1        0.2208
     26 O          20.4430   72.2631    2.9813 O.co2   1  UNL1       -0.4371
     27 O          21.7344   74.2046    1.7820 O.2     1  UNL1       -0.5170
     28 O          22.2081   73.5795    4.2824 O.3     1  UNL1       -0.2858
     29 O          24.5215   74.0937    4.3062 O.3     1  UNL1       -0.3258
     30 O          23.3010   76.6815    1.3289 O.3     1  UNL1       -0.3794
     31 O          24.8179   74.3421    0.6403 O.3     1  UNL1       -0.3794
     32 O          21.6186   76.2479    3.6443 O.3     1  UNL1       -0.3775
     33 C          23.2859   75.4705    2.0896 C.3     1  UNL1        0.1715
     34 C          24.6637   74.8152    1.9754 C.3     1  UNL1        0.1694
     35 C          22.9663   75.8001    3.5465 C.3     1  UNL1        0.1967
     36 C          24.8112   73.6582    2.9728 C.3     1  UNL1        0.1761
     37 C          23.1922   74.5948    4.4610 C.3     1  UNL1        0.2704
     38 H          23.5028   76.4791    0.4027 H       1  UNL1        0.2105
     39 H          24.7220   75.0823    0.0205 H       1  UNL1        0.2105
     40 H          21.4885   77.0113    3.0610 H       1  UNL1        0.2106
     41 O          27.0994   74.0730    3.5215 O.3     1  UNL1       -0.3794
     42 C          26.2296   73.0924    2.9866 C.3     1  UNL1        0.1693
     43 H          28.0058   73.7267    3.5367 H       1  UNL1        0.2105
@<TRIPOS>UNITY_ATOM_ATTR
2 1
charge -1
26 1
charge -1
@<TRIPOS>BOND
     1    25    28    1
     2    25    24    1
     3    25    26    1
     4    25    27    2
     5     1     4    1
     6     1    24    1
     7     1     2    1
     8     1     3    2
     9     6    11    1
    10     6    12    1
    11    29    36    1
    12    29    37    1
    13     7     9    1
    14     7    13    1
    15     8    10    1
    16     8    14    1
    17    28    37    1
    18     4     5    1
    19    30    33    1
    20    30    38    1
    21    31    34    1
    22    31    39    1
    23    32    35    1
    24    32    40    1
    25    41    42    1
    26    41    43    1
    27    15    19    2
    28    16    22    2
    29    17    12    1
    30    17    19   ar
    31    17    20   ar
    32    18    19   ar
    33    18    22   ar
    34    18    23    1
    35     9    10    1
    36     9    11    1
    37    10    12    1
    38    11     5    1
    39    33    34    1
    40    33    35    1
    41    34    36    1
    42    35    37    1
    43    36    42    1
    44    20    21   ar
    45    21    22   ar
