@<TRIPOS>MOLECULE
*****
 43 45 0 0 0
SMALL
GASTEIGER

@<TRIPOS>ATOM
      1 P          22.4833   71.5027   -2.4906 P.3     1  UNL1        0.2189
      2 O          21.3653   72.6719   -2.5142 O.co2   1  UNL1       -0.4371
      3 O          23.5818   71.6557   -3.5013 O.2     1  UNL1       -0.5170
      4 O          21.6203   70.1379   -2.5919 O.3     1  UNL1       -0.3112
      5 C          20.7735   69.9551   -3.7133 C.3     1  UNL1        0.1811
      6 O          19.1439   71.4537   -4.6474 O.3     1  UNL1       -0.3308
      7 O          17.2802   70.4527   -2.5225 O.3     1  UNL1       -0.3794
      8 O          16.4693   69.0656   -4.7259 O.3     1  UNL1       -0.3779
      9 C          18.2803   69.7438   -3.2523 C.3     1  UNL1        0.1713
     10 C          17.8157   69.4911   -4.6714 C.3     1  UNL1        0.1895
     11 C          19.4598   70.6842   -3.4666 C.3     1  UNL1        0.1764
     12 C          18.0262   70.8494   -5.3185 C.3     1  UNL1        0.2383
     13 H          16.5168   69.8722   -2.3732 H       1  UNL1        0.2105
     14 H          16.3870   68.1972   -4.3017 H       1  UNL1        0.2106
     15 O          16.0816   70.5296   -7.3420 O.2     1  UNL1       -0.2464
     16 O          19.2793   70.4721  -10.6605 O.2     1  UNL1       -0.2670
     17 N          18.3226   70.7485   -6.7197 N.ar    1  UNL1       -0.2551
     18 N          17.6754   70.5014   -8.9927 N.ar    1  UNL1       -0.2743
     19 C          17.2728   70.5887   -7.6540 C.ar    1  UNL1        0.3323
     20 C          19.6420   70.8085   -7.1550 C.ar    1  UNL1        0.0869
     21 C          20.0094   70.7224   -8.4352 C.ar    1  UNL1        0.0795
     22 C          18.9736   70.5545   -9.4749 C.ar    1  UNL1        0.2626
     23 H          16.9612   70.3895   -9.6614 H       1  UNL1        0.1734
     24 O          22.9795   71.5054   -0.9521 O.3     1  UNL1       -0.2703
     25 P          22.4061   70.7374    0.3495 P.3     1  UNL1        0.2208
     26 O          23.4738   69.5431    0.5760 O.co2   1  UNL1       -0.4371
     27 O          20.9829   70.2787    0.2161 O.2     1  UNL1       -0.5170
     28 O          22.6685   71.7563    1.5735 O.3     1  UNL1       -0.2858
     29 O          21.8858   72.6583    3.6205 O.3     1  UNL1       -0.3258
     30 O          21.2042   75.9070    1.1644 O.3     1  UNL1       -0.3794
     31 O          23.3540   75.9940    3.0667 O.3     1  UNL1       -0.3794
     32 O          20.7271   73.2270    0.1797 O.3     1  UNL1       -0.3775
     33 C          21.9030   74.7491    1.6295 C.3     1  UNL1        0.1715
     34 C          22.3348   74.9983    3.0759 C.3     1  UNL1        0.1694
     35 C          20.9746   73.5388    1.5464 C.3     1  UNL1        0.1967
     36 C          22.8524   73.7098    3.7293 C.3     1  UNL1        0.1761
     37 C          21.5624   72.3254    2.2691 C.3     1  UNL1        0.2704
     38 H          21.7883   76.6789    1.2141 H       1  UNL1        0.2105
     39 H          23.0144   76.8022    2.6511 H       1  UNL1        0.2105
     40 H          20.3549   74.0030   -0.2667 H       1  UNL1        0.2106
     41 O          22.4874   72.8684    5.9356 O.3     1  UNL1       -0.3794
     42 C          23.1403   73.8988    5.2171 C.3     1  UNL1        0.1693
     43 H          22.6621   72.9757    6.8842 H       1  UNL1        0.2105
@<TRIPOS>UNITY_ATOM_ATTR
2 1
charge -1
26 1
charge -1
@<TRIPOS>BOND
     1    25    28    1
     2    25    24    1
     3    25    26    1
     4    25    27    2
     5     1     4    1
     6     1    24    1
     7     1     2    1
     8     1     3    2
     9     6    11    1
    10     6    12    1
    11    29    36    1
    12    29    37    1
    13     7     9    1
    14     7    13    1
    15     8    10    1
    16     8    14    1
    17    28    37    1
    18     4     5    1
    19    30    33    1
    20    30    38    1
    21    31    34    1
    22    31    39    1
    23    32    35    1
    24    32    40    1
    25    41    42    1
    26    41    43    1
    27    15    19    2
    28    16    22    2
    29    17    12    1
    30    17    19   ar
    31    17    20   ar
    32    18    19   ar
    33    18    22   ar
    34    18    23    1
    35     9    10    1
    36     9    11    1
    37    10    12    1
    38    11     5    1
    39    33    34    1
    40    33    35    1
    41    34    36    1
    42    35    37    1
    43    36    42    1
    44    20    21   ar
    45    21    22   ar
@<TRIPOS>MOLECULE
*****
 43 45 0 0 0
SMALL
GASTEIGER

@<TRIPOS>ATOM
      1 P          22.7961   71.7035   -2.2259 P.3     1  UNL1        0.2189
      2 O          23.4135   73.1920   -2.3701 O.co2   1  UNL1       -0.4371
      3 O          23.3821   70.6816   -3.1553 O.2     1  UNL1       -0.5170
      4 O          21.1991   71.9318   -2.3496 O.3     1  UNL1       -0.3112
      5 C          20.5387   71.4725   -3.5161 C.3     1  UNL1        0.1811
      6 O          18.6045   72.2561   -4.7070 O.3     1  UNL1       -0.3308
      7 O          16.9852   71.0849   -2.4716 O.3     1  UNL1       -0.3794
      8 O          16.7517   69.1981   -4.4266 O.3     1  UNL1       -0.3779
      9 C          18.1917   70.6024   -3.0606 C.3     1  UNL1        0.1713
     10 C          17.9097   70.0080   -4.4247 C.3     1  UNL1        0.1895
     11 C          19.0570   71.8065   -3.4111 C.3     1  UNL1        0.1764
     12 C          17.7551   71.2511   -5.2843 C.3     1  UNL1        0.2383
     13 H          16.4163   70.3338   -2.2389 H       1  UNL1        0.2105
     14 H          16.8999   68.4206   -3.8660 H       1  UNL1        0.2106
     15 O          16.0263   70.3475   -7.3271 O.2     1  UNL1       -0.2464
     16 O          19.3968   70.4326  -10.4693 O.2     1  UNL1       -0.2670
     17 N          18.1543   71.0289   -6.6454 N.ar    1  UNL1       -0.2551
     18 N          17.7059   70.3908   -8.8900 N.ar    1  UNL1       -0.2743
     19 C          17.2086   70.5733   -7.5934 C.ar    1  UNL1        0.3323
     20 C          19.4705   71.2626   -7.0285 C.ar    1  UNL1        0.0869
     21 C          19.9292   71.0823   -8.2688 C.ar    1  UNL1        0.0795
     22 C          19.0056   70.6081   -9.3195 C.ar    1  UNL1        0.2626
     23 H          17.0652   70.0735   -9.5672 H       1  UNL1        0.1734
     24 O          22.9960   71.3776   -0.6553 O.3     1  UNL1       -0.2703
     25 P          22.0757   70.5470    0.3820 P.3     1  UNL1        0.2208
     26 O          23.1481   69.9609    1.4422 O.co2   1  UNL1       -0.4371
     27 O          21.2090   69.5045   -0.2628 O.2     1  UNL1       -0.5170
     28 O          21.2655   71.6756    1.2035 O.3     1  UNL1       -0.2858
     29 O          21.6362   74.0162    1.2312 O.3     1  UNL1       -0.3258
     30 O          20.3475   73.5062    5.1209 O.3     1  UNL1       -0.3794
     31 O          18.6221   74.7804    3.2111 O.3     1  UNL1       -0.3794
     32 O          22.0532   71.5161    3.8922 O.3     1  UNL1       -0.3775
     33 C          20.3843   73.2438    3.7155 C.3     1  UNL1        0.1715
     34 C          20.0051   74.5293    2.9776 C.3     1  UNL1        0.1694
     35 C          21.7926   72.7967    3.3279 C.3     1  UNL1        0.1967
     36 C          20.2791   74.4055    1.4727 C.3     1  UNL1        0.1761
     37 C          21.9737   72.7539    1.8095 C.3     1  UNL1        0.2704
     38 H          19.4559   73.7901    5.3737 H       1  UNL1        0.2105
     39 H          18.4626   74.8560    4.1650 H       1  UNL1        0.2105
     40 H          21.9355   71.5565    4.8537 H       1  UNL1        0.2106
     41 O          19.4035   76.6238    1.6196 O.3     1  UNL1       -0.3794
     42 C          20.0570   75.7270    0.7403 C.3     1  UNL1        0.1693
     43 H          19.2559   77.4694    1.1670 H       1  UNL1        0.2105
@<TRIPOS>UNITY_ATOM_ATTR
2 1
charge -1
26 1
charge -1
@<TRIPOS>BOND
     1    25    28    1
     2    25    24    1
     3    25    26    1
     4    25    27    2
     5     1     4    1
     6     1    24    1
     7     1     2    1
     8     1     3    2
     9     6    11    1
    10     6    12    1
    11    29    36    1
    12    29    37    1
    13     7     9    1
    14     7    13    1
    15     8    10    1
    16     8    14    1
    17    28    37    1
    18     4     5    1
    19    30    33    1
    20    30    38    1
    21    31    34    1
    22    31    39    1
    23    32    35    1
    24    32    40    1
    25    41    42    1
    26    41    43    1
    27    15    19    2
    28    16    22    2
    29    17    12    1
    30    17    19   ar
    31    17    20   ar
    32    18    19   ar
    33    18    22   ar
    34    18    23    1
    35     9    10    1
    36     9    11    1
    37    10    12    1
    38    11     5    1
    39    33    34    1
    40    33    35    1
    41    34    36    1
    42    35    37    1
    43    36    42    1
    44    20    21   ar
    45    21    22   ar
@<TRIPOS>MOLECULE
*****
 43 45 0 0 0
SMALL
GASTEIGER

@<TRIPOS>ATOM
      1 P          22.8925   72.0293   -3.2385 P.3     1  UNL1        0.2189
      2 O          23.8195   72.9054   -4.2338 O.co2   1  UNL1       -0.4371
      3 O          23.6108   70.9390   -2.4991 O.2     1  UNL1       -0.5170
      4 O          21.6621   71.5512   -4.1741 O.3     1  UNL1       -0.3112
      5 C          20.7893   70.5487   -3.6831 C.3     1  UNL1        0.1811
      6 O          19.0111   71.7926   -4.7148 O.3     1  UNL1       -0.3308
      7 O          17.2616   70.7613   -2.5089 O.3     1  UNL1       -0.3794
      8 O          16.6047   69.1358   -4.5977 O.3     1  UNL1       -0.3779
      9 C          18.3320   70.1098   -3.1908 C.3     1  UNL1        0.1713
     10 C          17.8984   69.7042   -4.5840 C.3     1  UNL1        0.1895
     11 C          19.4055   71.1510   -3.4823 C.3     1  UNL1        0.1764
     12 C          17.9645   71.0251   -5.3316 C.3     1  UNL1        0.2383
     13 H          16.5639   70.1161   -2.3117 H       1  UNL1        0.2105
     14 H          16.6145   68.2977   -4.1096 H       1  UNL1        0.2106
     15 O          16.0443   70.5044   -7.3365 O.2     1  UNL1       -0.2464
     16 O          19.2576   70.3775  -10.6380 O.2     1  UNL1       -0.2670
     17 N          18.2715   70.8520   -6.7234 N.ar    1  UNL1       -0.2551
     18 N          17.6458   70.4418   -8.9788 N.ar    1  UNL1       -0.2743
     19 C          17.2335   70.5932   -7.6487 C.ar    1  UNL1        0.3323
     20 C          19.5894   70.9395   -7.1585 C.ar    1  UNL1        0.0869
     21 C          19.9661   70.7914   -8.4303 C.ar    1  UNL1        0.0795
     22 C          18.9431   70.5187   -9.4603 C.ar    1  UNL1        0.2626
     23 H          16.9399   70.2605   -9.6411 H       1  UNL1        0.1734
     24 O          22.2148   73.1506   -2.2919 O.3     1  UNL1       -0.2703
     25 P          22.8645   74.3884   -1.4802 P.3     1  UNL1        0.2208
     26 O          22.3058   75.6847   -2.2708 O.co2   1  UNL1       -0.4371
     27 O          24.3602   74.3308   -1.3643 O.2     1  UNL1       -0.5170
     28 O          22.0843   74.4050   -0.0674 O.3     1  UNL1       -0.2858
     29 O          21.4321   72.1529    0.2780 O.3     1  UNL1       -0.3258
     30 O          19.9358   73.8130    3.7502 O.3     1  UNL1       -0.3794
     31 O          22.2667   72.1394    3.8685 O.3     1  UNL1       -0.3794
     32 O          19.7727   75.2812    1.2607 O.3     1  UNL1       -0.3775
     33 C          20.8637   73.6630    2.6722 C.3     1  UNL1        0.1715
     34 C          21.4291   72.2421    2.7204 C.3     1  UNL1        0.1694
     35 C          20.1376   73.9082    1.3508 C.3     1  UNL1        0.1967
     36 C          22.2241   71.9188    1.4483 C.3     1  UNL1        0.1761
     37 C          20.9981   73.5084    0.1509 C.3     1  UNL1        0.2704
     38 H          20.3906   73.6591    4.5922 H       1  UNL1        0.2105
     39 H          21.7527   72.3464    4.6649 H       1  UNL1        0.2105
     40 H          19.2281   75.5218    2.0258 H       1  UNL1        0.2106
     41 O          21.6896   69.7161    0.6925 O.3     1  UNL1       -0.3794
     42 C          22.6635   70.4569    1.4045 C.3     1  UNL1        0.1693
     43 H          21.9561   68.7837    0.6564 H       1  UNL1        0.2105
@<TRIPOS>UNITY_ATOM_ATTR
2 1
charge -1
26 1
charge -1
@<TRIPOS>BOND
     1    25    28    1
     2    25    24    1
     3    25    26    1
     4    25    27    2
     5     1     4    1
     6     1    24    1
     7     1     2    1
     8     1     3    2
     9     6    11    1
    10     6    12    1
    11    29    36    1
    12    29    37    1
    13     7     9    1
    14     7    13    1
    15     8    10    1
    16     8    14    1
    17    28    37    1
    18     4     5    1
    19    30    33    1
    20    30    38    1
    21    31    34    1
    22    31    39    1
    23    32    35    1
    24    32    40    1
    25    41    42    1
    26    41    43    1
    27    15    19    2
    28    16    22    2
    29    17    12    1
    30    17    19   ar
    31    17    20   ar
    32    18    19   ar
    33    18    22   ar
    34    18    23    1
    35     9    10    1
    36     9    11    1
    37    10    12    1
    38    11     5    1
    39    33    34    1
    40    33    35    1
    41    34    36    1
    42    35    37    1
    43    36    42    1
    44    20    21   ar
    45    21    22   ar
@<TRIPOS>MOLECULE
*****
 43 45 0 0 0
SMALL
GASTEIGER

@<TRIPOS>ATOM
      1 P          21.8786   73.8260   -5.7237 P.3     1  UNL1        0.2189
      2 O          20.5542   74.3378   -4.9482 O.co2   1  UNL1       -0.4371
      3 O          22.9784   74.8405   -5.8372 O.2     1  UNL1       -0.5170
      4 O          21.3098   73.2469   -7.1233 O.3     1  UNL1       -0.3112
      5 C          20.3320   74.0002   -7.8192 C.3     1  UNL1        0.1811
      6 O          19.6350   71.7665   -8.3656 O.3     1  UNL1       -0.3308
      7 O          17.9282   73.0190  -10.4890 O.3     1  UNL1       -0.3794
      8 O          16.1296   72.5119   -8.5030 O.3     1  UNL1       -0.3779
      9 C          18.2435   73.5013   -9.1839 C.3     1  UNL1        0.1713
     10 C          17.4780   72.7209   -8.1358 C.3     1  UNL1        0.1895
     11 C          19.6854   73.1164   -8.8770 C.3     1  UNL1        0.1764
     12 C          18.2716   71.4274   -8.0640 C.3     1  UNL1        0.2383
     13 H          17.0121   73.2532  -10.7076 H       1  UNL1        0.2105
     14 H          15.6671   73.3639   -8.5349 H       1  UNL1        0.2106
     15 O          16.0389   70.0308   -7.0431 O.2     1  UNL1       -0.2464
     16 O          18.1793   69.1541   -3.0567 O.2     1  UNL1       -0.2670
     17 N          18.2182   70.8237   -6.7624 N.ar    1  UNL1       -0.2551
     18 N          17.1065   69.5953   -5.0591 N.ar    1  UNL1       -0.2743
     19 C          17.0488   70.1460   -6.3457 C.ar    1  UNL1        0.3323
     20 C          19.3173   70.9065   -5.9145 C.ar    1  UNL1        0.0869
     21 C          19.3559   70.3770   -4.6900 C.ar    1  UNL1        0.0795
     22 C          18.1750   69.6521   -4.1782 C.ar    1  UNL1        0.2626
     23 H          16.3031   69.1188   -4.7472 H       1  UNL1        0.1734
     24 O          22.2800   72.4866   -4.9127 O.3     1  UNL1       -0.2703
     25 P          23.1191   72.2846   -3.5459 P.3     1  UNL1        0.2208
     26 O          24.3768   73.2852   -3.7313 O.co2   1  UNL1       -0.4371
     27 O          23.4979   70.8600   -3.2612 O.2     1  UNL1       -0.5170
     28 O          22.2125   72.9766   -2.4039 O.3     1  UNL1       -0.2858
     29 O          21.4659   71.2719   -0.9365 O.3     1  UNL1       -0.3258
     30 O          19.4520   74.4823    0.7030 O.3     1  UNL1       -0.3794
     31 O          21.6964   73.3552    2.0959 O.3     1  UNL1       -0.3794
     32 O          19.7320   74.2681   -2.1702 O.3     1  UNL1       -0.3775
     33 C          20.5417   73.8215    0.0538 C.3     1  UNL1        0.1715
     34 C          21.0619   72.7257    0.9862 C.3     1  UNL1        0.1694
     35 C          20.0487   73.2197   -1.2608 C.3     1  UNL1        0.1967
     36 C          22.0491   71.8026    0.2593 C.3     1  UNL1        0.1761
     37 C          21.0869   72.2796   -1.8760 C.3     1  UNL1        0.2704
     38 H          19.7584   74.8671    1.5382 H       1  UNL1        0.2105
     39 H          21.0625   73.9356    2.5458 H       1  UNL1        0.2105
     40 H          19.0737   74.8560   -1.7692 H       1  UNL1        0.2106
     41 O          21.7905   69.4587    0.6443 O.3     1  UNL1       -0.3794
     42 C          22.4595   70.6113    1.1221 C.3     1  UNL1        0.1693
     43 H          22.0424   68.6924    1.1839 H       1  UNL1        0.2105
@<TRIPOS>UNITY_ATOM_ATTR
2 1
charge -1
26 1
charge -1
@<TRIPOS>BOND
     1    25    28    1
     2    25    24    1
     3    25    26    1
     4    25    27    2
     5     1     4    1
     6     1    24    1
     7     1     2    1
     8     1     3    2
     9     6    11    1
    10     6    12    1
    11    29    36    1
    12    29    37    1
    13     7     9    1
    14     7    13    1
    15     8    10    1
    16     8    14    1
    17    28    37    1
    18     4     5    1
    19    30    33    1
    20    30    38    1
    21    31    34    1
    22    31    39    1
    23    32    35    1
    24    32    40    1
    25    41    42    1
    26    41    43    1
    27    15    19    2
    28    16    22    2
    29    17    12    1
    30    17    19   ar
    31    17    20   ar
    32    18    19   ar
    33    18    22   ar
    34    18    23    1
    35     9    10    1
    36     9    11    1
    37    10    12    1
    38    11     5    1
    39    33    34    1
    40    33    35    1
    41    34    36    1
    42    35    37    1
    43    36    42    1
    44    20    21   ar
    45    21    22   ar
@<TRIPOS>MOLECULE
*****
 43 45 0 0 0
SMALL
GASTEIGER

@<TRIPOS>ATOM
      1 P          22.3001   70.3921   -0.1646 P.3     1  UNL1        0.2189
      2 O          20.6918   70.3162   -0.3220 O.co2   1  UNL1       -0.4371
      3 O          22.9415   69.1552    0.3922 O.2     1  UNL1       -0.5170
      4 O          22.5442   71.7509    0.6792 O.3     1  UNL1       -0.3112
      5 C          21.4220   72.4077    1.2425 C.3     1  UNL1        0.1811
      6 O          22.9040   72.6120    3.1229 O.3     1  UNL1       -0.3308
      7 O          20.4384   72.9917    4.7865 O.3     1  UNL1       -0.3794
      8 O          21.3496   75.5440    4.4831 O.3     1  UNL1       -0.3779
      9 C          20.7071   73.4353    3.4575 C.3     1  UNL1        0.1713
     10 C          21.6700   74.6040    3.4778 C.3     1  UNL1        0.1895
     11 C          21.5290   72.3582    2.7605 C.3     1  UNL1        0.1764
     12 C          22.9997   73.9125    3.7266 C.3     1  UNL1        0.2383
     13 H          19.9142   73.6632    5.2515 H       1  UNL1        0.2105
     14 H          20.4956   75.9565    4.2798 H       1  UNL1        0.2106
     15 O          25.3203   74.6997    5.1313 O.2     1  UNL1       -0.2464
     16 O          27.1672   76.6202    1.3707 O.2     1  UNL1       -0.2670
     17 N          24.1029   74.6192    3.1392 N.ar    1  UNL1       -0.2551
     18 N          26.2381   75.6552    3.2576 N.ar    1  UNL1       -0.2743
     19 C          25.2206   74.9686    3.9324 C.ar    1  UNL1        0.3323
     20 C          24.0697   74.9582    1.7909 C.ar    1  UNL1        0.0869
     21 C          25.0477   75.6142    1.1628 C.ar    1  UNL1        0.0795
     22 C          26.2510   76.0160    1.9196 C.ar    1  UNL1        0.2626
     23 H          27.0265   75.9092    3.7902 H       1  UNL1        0.1734
     24 O          22.7922   70.7942   -1.6510 O.3     1  UNL1       -0.2703
     25 P          22.2908   71.9557   -2.6572 P.3     1  UNL1        0.2208
     26 O          23.3323   71.8528   -3.8910 O.co2   1  UNL1       -0.4371
     27 O          22.2052   73.3176   -2.0311 O.2     1  UNL1       -0.5170
     28 O          20.8960   71.4051   -3.2542 O.3     1  UNL1       -0.2858
     29 O          19.4687   72.0345   -5.0383 O.3     1  UNL1       -0.3258
     30 O          16.6272   71.4169   -2.1064 O.3     1  UNL1       -0.3794
     31 O          16.8790   69.5301   -4.2569 O.3     1  UNL1       -0.3794
     32 O          19.1612   72.6402   -1.4266 O.3     1  UNL1       -0.3775
     33 C          17.8473   71.1709   -2.8109 C.3     1  UNL1        0.1715
     34 C          17.5018   70.8116   -4.2574 C.3     1  UNL1        0.1694
     35 C          18.7144   72.4275   -2.7614 C.3     1  UNL1        0.1967
     36 C          18.7577   70.7950   -5.1392 C.3     1  UNL1        0.1761
     37 C          19.9096   72.3268   -3.7109 C.3     1  UNL1        0.2704
     38 H          16.0723   70.6227   -2.1337 H       1  UNL1        0.2105
     39 H          16.0877   69.5540   -3.6962 H       1  UNL1        0.2105
     40 H          18.3953   72.7025   -0.8355 H       1  UNL1        0.2106
     41 O          19.6081   70.7214   -7.3708 O.3     1  UNL1       -0.3794
     42 C          18.4181   70.5944   -6.6145 C.3     1  UNL1        0.1693
     43 H          19.4073   70.5957   -8.3119 H       1  UNL1        0.2105
@<TRIPOS>UNITY_ATOM_ATTR
2 1
charge -1
26 1
charge -1
@<TRIPOS>BOND
     1    25    28    1
     2    25    24    1
     3    25    26    1
     4    25    27    2
     5     1     4    1
     6     1    24    1
     7     1     2    1
     8     1     3    2
     9     6    11    1
    10     6    12    1
    11    29    36    1
    12    29    37    1
    13     7     9    1
    14     7    13    1
    15     8    10    1
    16     8    14    1
    17    28    37    1
    18     4     5    1
    19    30    33    1
    20    30    38    1
    21    31    34    1
    22    31    39    1
    23    32    35    1
    24    32    40    1
    25    41    42    1
    26    41    43    1
    27    15    19    2
    28    16    22    2
    29    17    12    1
    30    17    19   ar
    31    17    20   ar
    32    18    19   ar
    33    18    22   ar
    34    18    23    1
    35     9    10    1
    36     9    11    1
    37    10    12    1
    38    11     5    1
    39    33    34    1
    40    33    35    1
    41    34    36    1
    42    35    37    1
    43    36    42    1
    44    20    21   ar
    45    21    22   ar
@<TRIPOS>MOLECULE
*****
 43 45 0 0 0
SMALL
GASTEIGER

@<TRIPOS>ATOM
      1 P          22.0955   71.0080   -2.8718 P.3     1  UNL1        0.2189
      2 O          21.3282   69.5838   -2.8720 O.co2   1  UNL1       -0.4371
      3 O          23.4971   70.9729   -3.4065 O.2     1  UNL1       -0.5170
      4 O          21.9371   71.5344   -1.3500 O.3     1  UNL1       -0.3112
      5 C          20.8641   72.4083   -1.0452 C.3     1  UNL1        0.1811
      6 O          20.5915   74.5597   -0.0104 O.3     1  UNL1       -0.3308
      7 O          23.3851   75.1468   -0.9278 O.3     1  UNL1       -0.3794
      8 O          23.7412   74.5305    1.7047 O.3     1  UNL1       -0.3779
      9 C          22.8274   73.9185   -0.4637 C.3     1  UNL1        0.1713
     10 C          22.6320   73.9637    1.0375 C.3     1  UNL1        0.1895
     11 C          21.3924   73.8342   -0.9688 C.3     1  UNL1        0.1764
     12 C          21.3771   74.8103    1.1665 C.3     1  UNL1        0.2383
     13 H          24.3017   75.2230   -0.6180 H       1  UNL1        0.2105
     14 H          24.5142   73.9553    1.5933 H       1  UNL1        0.2106
     15 O          21.4885   72.3121    2.4797 O.2     1  UNL1       -0.2464
     16 O          18.3586   73.6090    5.6044 O.2     1  UNL1       -0.2670
     17 N          20.6024   74.4681    2.3258 N.ar    1  UNL1       -0.2551
     18 N          19.9301   72.9599    4.0346 N.ar    1  UNL1       -0.2743
     19 C          20.7319   73.1859    2.9085 C.ar    1  UNL1        0.3323
     20 C          19.7263   75.3990    2.8734 C.ar    1  UNL1        0.0869
     21 C          18.9678   75.1675    3.9469 C.ar    1  UNL1        0.0795
     22 C          19.0433   73.8526    4.6156 C.ar    1  UNL1        0.2626
     23 H          20.0033   72.0734    4.4571 H       1  UNL1        0.1734
     24 O          21.0855   71.9652   -3.6943 O.3     1  UNL1       -0.2703
     25 P          21.3613   73.0344   -4.8749 P.3     1  UNL1        0.2208
     26 O          22.7973   72.5761   -5.4626 O.co2   1  UNL1       -0.4371
     27 O          21.3021   74.4680   -4.4329 O.2     1  UNL1       -0.5170
     28 O          20.3048   72.6470   -6.0319 O.3     1  UNL1       -0.2858
     29 O          19.2557   70.5221   -6.0035 O.3     1  UNL1       -0.3258
     30 O          18.7353   71.4616   -9.9906 O.3     1  UNL1       -0.3794
     31 O          16.4798   71.5213   -8.2137 O.3     1  UNL1       -0.3794
     32 O          21.1997   72.1735   -8.6492 O.3     1  UNL1       -0.3775
     33 C          18.8324   71.7334   -8.5899 C.3     1  UNL1        0.1715
     34 C          17.7366   70.9438   -7.8711 C.3     1  UNL1        0.1694
     35 C          20.2136   71.3099   -8.0938 C.3     1  UNL1        0.1967
     36 C          17.9406   70.9716   -6.3504 C.3     1  UNL1        0.1761
     37 C          20.2946   71.3258   -6.5663 C.3     1  UNL1        0.2704
     38 H          17.8607   71.7287  -10.3120 H       1  UNL1        0.2105
     39 H          16.3636   71.4980   -9.1766 H       1  UNL1        0.2105
     40 H          21.1383   72.1543   -9.6165 H       1  UNL1        0.2106
     41 O          16.2215   69.3298   -6.5905 O.3     1  UNL1       -0.3794
     42 C          16.9522   70.0619   -5.6240 C.3     1  UNL1        0.1693
     43 H          15.5886   68.7462   -6.1427 H       1  UNL1        0.2105
@<TRIPOS>UNITY_ATOM_ATTR
2 1
charge -1
26 1
charge -1
@<TRIPOS>BOND
     1    25    28    1
     2    25    24    1
     3    25    26    1
     4    25    27    2
     5     1     4    1
     6     1    24    1
     7     1     2    1
     8     1     3    2
     9     6    11    1
    10     6    12    1
    11    29    36    1
    12    29    37    1
    13     7     9    1
    14     7    13    1
    15     8    10    1
    16     8    14    1
    17    28    37    1
    18     4     5    1
    19    30    33    1
    20    30    38    1
    21    31    34    1
    22    31    39    1
    23    32    35    1
    24    32    40    1
    25    41    42    1
    26    41    43    1
    27    15    19    2
    28    16    22    2
    29    17    12    1
    30    17    19   ar
    31    17    20   ar
    32    18    19   ar
    33    18    22   ar
    34    18    23    1
    35     9    10    1
    36     9    11    1
    37    10    12    1
    38    11     5    1
    39    33    34    1
    40    33    35    1
    41    34    36    1
    42    35    37    1
    43    36    42    1
    44    20    21   ar
    45    21    22   ar
@<TRIPOS>MOLECULE
*****
 43 45 0 0 0
SMALL
GASTEIGER

@<TRIPOS>ATOM
      1 P          22.3166   73.3864   -5.3550 P.3     1  UNL1        0.2189
      2 O          22.7711   74.8033   -5.9900 O.co2   1  UNL1       -0.4371
      3 O          23.4152   72.6064   -4.6945 O.2     1  UNL1       -0.5170
      4 O          21.5596   72.6393   -6.5743 O.3     1  UNL1       -0.3112
      5 C          20.8606   73.4286   -7.5211 C.3     1  UNL1        0.1811
      6 O          19.9894   71.2225   -7.9059 O.3     1  UNL1       -0.3308
      7 O          18.5028   72.4163  -10.2202 O.3     1  UNL1       -0.3794
      8 O          16.5762   72.2518   -8.2973 O.3     1  UNL1       -0.3779
      9 C          18.8003   72.9880   -8.9474 C.3     1  UNL1        0.1713
     10 C          17.9197   72.3767   -7.8776 C.3     1  UNL1        0.1895
     11 C          20.1856   72.5100   -8.5305 C.3     1  UNL1        0.1764
     12 C          18.5884   71.0317   -7.6497 C.3     1  UNL1        0.2383
     13 H          17.6228   72.7076  -10.5075 H       1  UNL1        0.2105
     14 H          16.1950   73.1340   -8.4287 H       1  UNL1        0.2106
     15 O          16.2643   69.7455   -6.6895 O.2     1  UNL1       -0.2464
     16 O          18.0561   69.2563   -2.4715 O.2     1  UNL1       -0.2670
     17 N          18.4207   70.5575   -6.3049 N.ar    1  UNL1       -0.2551
     18 N          17.1585   69.5028   -4.5901 N.ar    1  UNL1       -0.2743
     19 C          17.2138   69.9259   -5.9242 C.ar    1  UNL1        0.3323
     20 C          19.4461   70.7202   -5.3798 C.ar    1  UNL1        0.0869
     21 C          19.3771   70.3122   -4.1109 C.ar    1  UNL1        0.0795
     22 C          18.1503   69.6428   -3.6323 C.ar    1  UNL1        0.2626
     23 H          16.3271   69.0605   -4.3021 H       1  UNL1        0.1734
     24 O          21.1017   73.8012   -4.3727 O.3     1  UNL1       -0.2703
     25 P          21.0980   74.2489   -2.8195 P.3     1  UNL1        0.2208
     26 O          19.5718   74.7266   -2.5747 O.co2   1  UNL1       -0.4371
     27 O          22.1327   75.2804   -2.4739 O.2     1  UNL1       -0.5170
     28 O          21.2298   72.8672   -1.9958 O.3     1  UNL1       -0.2858
     29 O          22.8963   73.3328   -0.3764 O.3     1  UNL1       -0.3258
     30 O          21.9571   69.4686    0.7355 O.3     1  UNL1       -0.3794
     31 O          21.1148   71.6632    2.3854 O.3     1  UNL1       -0.3794
     32 O          22.0457   70.1832   -2.0682 O.3     1  UNL1       -0.3775
     33 C          21.6903   70.7824    0.2374 C.3     1  UNL1        0.1715
     34 C          22.0591   71.7921    1.3262 C.3     1  UNL1        0.1694
     35 C          22.5250   71.0185   -1.0199 C.3     1  UNL1        0.1967
     36 C          22.0542   73.2252    0.7773 C.3     1  UNL1        0.1761
     37 C          22.4911   72.4853   -1.4531 C.3     1  UNL1        0.2704
     38 H          21.4298   69.3120    1.5337 H       1  UNL1        0.2105
     39 H          21.1276   70.7537    2.7227 H       1  UNL1        0.2105
     40 H          22.0725   69.2574   -1.7817 H       1  UNL1        0.2106
     41 O          22.5374   73.6278    3.0823 O.3     1  UNL1       -0.3794
     42 C          22.5712   74.2320    1.8024 C.3     1  UNL1        0.1693
     43 H          22.8640   74.2570    3.7450 H       1  UNL1        0.2105
@<TRIPOS>UNITY_ATOM_ATTR
2 1
charge -1
26 1
charge -1
@<TRIPOS>BOND
     1    25    28    1
     2    25    24    1
     3    25    26    1
     4    25    27    2
     5     1     4    1
     6     1    24    1
     7     1     2    1
     8     1     3    2
     9     6    11    1
    10     6    12    1
    11    29    36    1
    12    29    37    1
    13     7     9    1
    14     7    13    1
    15     8    10    1
    16     8    14    1
    17    28    37    1
    18     4     5    1
    19    30    33    1
    20    30    38    1
    21    31    34    1
    22    31    39    1
    23    32    35    1
    24    32    40    1
    25    41    42    1
    26    41    43    1
    27    15    19    2
    28    16    22    2
    29    17    12    1
    30    17    19   ar
    31    17    20   ar
    32    18    19   ar
    33    18    22   ar
    34    18    23    1
    35     9    10    1
    36     9    11    1
    37    10    12    1
    38    11     5    1
    39    33    34    1
    40    33    35    1
    41    34    36    1
    42    35    37    1
    43    36    42    1
    44    20    21   ar
    45    21    22   ar
@<TRIPOS>MOLECULE
*****
 43 45 0 0 0
SMALL
GASTEIGER

@<TRIPOS>ATOM
      1 P          21.9296   75.1970   -7.6115 P.3     1  UNL1        0.2189
      2 O          21.5248   74.6801   -6.1329 O.co2   1  UNL1       -0.4371
      3 O          21.2764   76.4797   -8.0353 O.2     1  UNL1       -0.5170
      4 O          21.6473   73.9176   -8.5610 O.3     1  UNL1       -0.3112
      5 C          21.3149   72.6829   -7.9506 C.3     1  UNL1        0.1811
      6 O          19.9568   70.7140   -8.1805 O.3     1  UNL1       -0.3308
      7 O          18.5791   72.1536  -10.4211 O.3     1  UNL1       -0.3794
      8 O          16.8281   72.4589   -8.3529 O.3     1  UNL1       -0.3779
      9 C          19.0976   72.6741   -9.1982 C.3     1  UNL1        0.1713
     10 C          18.1967   72.2949   -8.0414 C.3     1  UNL1        0.1895
     11 C          20.3756   71.9129   -8.8687 C.3     1  UNL1        0.1764
     12 C          18.5738   70.8413   -7.8116 C.3     1  UNL1        0.2383
     13 H          17.7626   72.6246  -10.6524 H       1  UNL1        0.2105
     14 H          16.6381   73.4001   -8.4900 H       1  UNL1        0.2106
     15 O          16.1599   69.9024   -6.6850 O.2     1  UNL1       -0.2464
     16 O          18.0955   69.3526   -2.5387 O.2     1  UNL1       -0.2670
     17 N          18.4187   70.4454   -6.4403 N.ar    1  UNL1       -0.2551
     18 N          17.1257   69.6292   -4.6214 N.ar    1  UNL1       -0.2743
     19 C          17.1635   69.9893   -5.9745 C.ar    1  UNL1        0.3323
     20 C          19.5038   70.5113   -5.5730 C.ar    1  UNL1        0.0869
     21 C          19.4508   70.1654   -4.2851 C.ar    1  UNL1        0.0795
     22 C          18.1764   69.6781   -3.7190 C.ar    1  UNL1        0.2626
     23 H          16.2615   69.3088   -4.2746 H       1  UNL1        0.1734
     24 O          23.5438   75.2530   -7.5477 O.3     1  UNL1       -0.2703
     25 P          24.5907   76.3508   -8.1061 P.3     1  UNL1        0.2208
     26 O          24.6208   77.4649   -6.9333 O.co2   1  UNL1       -0.4371
     27 O          24.2499   76.8910   -9.4647 O.2     1  UNL1       -0.5170
     28 O          26.0298   75.6255   -8.0164 O.3     1  UNL1       -0.2858
     29 O          27.8887   76.4191   -6.7788 O.3     1  UNL1       -0.3258
     30 O          29.8993   74.4143   -9.7770 O.3     1  UNL1       -0.3794
     31 O          29.8382   73.3099   -7.1266 O.3     1  UNL1       -0.3794
     32 O          27.4929   75.8996  -10.3953 O.3     1  UNL1       -0.3775
     33 C          28.8384   74.6399   -8.8448 C.3     1  UNL1        0.1715
     34 C          29.4312   74.6403   -7.4344 C.3     1  UNL1        0.1694
     35 C          28.1813   75.9842   -9.1522 C.3     1  UNL1        0.1967
     36 C          28.4089   75.1383   -6.4039 C.3     1  UNL1        0.1761
     37 C          27.2195   76.4099   -8.0414 C.3     1  UNL1        0.2704
     38 H          30.3204   73.5621   -9.5876 H       1  UNL1        0.2105
     39 H          30.4832   73.0073   -7.7850 H       1  UNL1        0.2105
     40 H          28.1126   75.6297  -11.0903 H       1  UNL1        0.2106
     41 O          29.1483   74.0136   -4.4297 O.3     1  UNL1       -0.3794
     42 C          29.0263   75.2964   -5.0161 C.3     1  UNL1        0.1693
     43 H          29.5402   74.0987   -3.5460 H       1  UNL1        0.2105
@<TRIPOS>UNITY_ATOM_ATTR
2 1
charge -1
26 1
charge -1
@<TRIPOS>BOND
     1    25    28    1
     2    25    24    1
     3    25    26    1
     4    25    27    2
     5     1     4    1
     6     1    24    1
     7     1     2    1
     8     1     3    2
     9     6    11    1
    10     6    12    1
    11    29    36    1
    12    29    37    1
    13     7     9    1
    14     7    13    1
    15     8    10    1
    16     8    14    1
    17    28    37    1
    18     4     5    1
    19    30    33    1
    20    30    38    1
    21    31    34    1
    22    31    39    1
    23    32    35    1
    24    32    40    1
    25    41    42    1
    26    41    43    1
    27    15    19    2
    28    16    22    2
    29    17    12    1
    30    17    19   ar
    31    17    20   ar
    32    18    19   ar
    33    18    22   ar
    34    18    23    1
    35     9    10    1
    36     9    11    1
    37    10    12    1
    38    11     5    1
    39    33    34    1
    40    33    35    1
    41    34    36    1
    42    35    37    1
    43    36    42    1
    44    20    21   ar
    45    21    22   ar
@<TRIPOS>MOLECULE
*****
 43 45 0 0 0
SMALL
GASTEIGER

@<TRIPOS>ATOM
      1 P          21.5009   73.2514   -6.0716 P.3     1  UNL1        0.2189
      2 O          20.7833   74.5056   -5.3441 O.co2   1  UNL1       -0.4371
      3 O          22.7869   73.5765   -6.7730 O.2     1  UNL1       -0.5170
      4 O          20.3346   72.6211   -6.9991 O.3     1  UNL1       -0.3112
      5 C          19.9602   71.2705   -6.7900 C.3     1  UNL1        0.1811
      6 O          17.6983   70.9707   -7.5434 O.3     1  UNL1       -0.3308
      7 O          18.8326   70.8779  -10.3175 O.3     1  UNL1       -0.3794
      8 O          17.8660   73.4227  -10.1553 O.3     1  UNL1       -0.3779
      9 C          19.2451   71.6630   -9.1999 C.3     1  UNL1        0.1713
     10 C          18.2613   72.7883   -8.9562 C.3     1  UNL1        0.1895
     11 C          19.0774   70.8164   -7.9443 C.3     1  UNL1        0.1764
     12 C          17.1147   72.0621   -8.2735 C.3     1  UNL1        0.2383
     13 H          18.9311   71.3975  -11.1313 H       1  UNL1        0.2105
     14 H          18.6298   73.8703  -10.5515 H       1  UNL1        0.2106
     15 O          14.9440   73.7195   -8.9940 O.2     1  UNL1       -0.2464
     16 O          14.4484   75.2577   -4.6778 O.2     1  UNL1       -0.2670
     17 N          16.3996   72.9060   -7.3580 N.ar    1  UNL1       -0.2551
     18 N          14.6989   74.4839   -6.8443 N.ar    1  UNL1       -0.2743
     19 C          15.3251   73.7001   -7.8218 C.ar    1  UNL1        0.3323
     20 C          16.7655   72.9400   -6.0168 C.ar    1  UNL1        0.0869
     21 C          16.1590   73.6939   -5.0975 C.ar    1  UNL1        0.0795
     22 C          15.0266   74.5531   -5.4995 C.ar    1  UNL1        0.2626
     23 H          13.9478   75.0457   -7.1443 H       1  UNL1        0.1734
     24 O          21.6403   72.1700   -4.8782 O.3     1  UNL1       -0.2703
     25 P          22.5593   72.1692   -3.5484 P.3     1  UNL1        0.2208
     26 O          23.9115   72.9147   -4.0315 O.co2   1  UNL1       -0.4371
     27 O          22.7809   70.8083   -2.9544 O.2     1  UNL1       -0.5170
     28 O          21.8445   73.2234   -2.5572 O.3     1  UNL1       -0.2858
     29 O          19.6871   72.2927   -2.2468 O.3     1  UNL1       -0.3258
     30 O          21.9415   69.3576   -0.4155 O.3     1  UNL1       -0.3794
     31 O          20.7383   68.8343   -2.9702 O.3     1  UNL1       -0.3794
     32 O          22.6673   72.1423   -0.1017 O.3     1  UNL1       -0.3775
     33 C          21.6616   70.3701   -1.3860 C.3     1  UNL1        0.1715
     34 C          20.4076   69.9589   -2.1601 C.3     1  UNL1        0.1694
     35 C          21.4388   71.7006   -0.6693 C.3     1  UNL1        0.1967
     36 C          19.8914   71.1119   -3.0314 C.3     1  UNL1        0.1761
     37 C          20.8786   72.7647   -1.6148 C.3     1  UNL1        0.2704
     38 H          22.0844   68.5104   -0.8641 H       1  UNL1        0.2105
     39 H          21.0633   68.1136   -2.4080 H       1  UNL1        0.2105
     40 H          23.0114   71.4601    0.4950 H       1  UNL1        0.2106
     41 O          17.5415   70.8314   -2.7029 O.3     1  UNL1       -0.3794
     42 C          18.5549   70.7771   -3.6900 C.3     1  UNL1        0.1693
     43 H          16.6850   70.6208   -3.1077 H       1  UNL1        0.2105
@<TRIPOS>UNITY_ATOM_ATTR
2 1
charge -1
26 1
charge -1
@<TRIPOS>BOND
     1    25    28    1
     2    25    24    1
     3    25    26    1
     4    25    27    2
     5     1     4    1
     6     1    24    1
     7     1     2    1
     8     1     3    2
     9     6    11    1
    10     6    12    1
    11    29    36    1
    12    29    37    1
    13     7     9    1
    14     7    13    1
    15     8    10    1
    16     8    14    1
    17    28    37    1
    18     4     5    1
    19    30    33    1
    20    30    38    1
    21    31    34    1
    22    31    39    1
    23    32    35    1
    24    32    40    1
    25    41    42    1
    26    41    43    1
    27    15    19    2
    28    16    22    2
    29    17    12    1
    30    17    19   ar
    31    17    20   ar
    32    18    19   ar
    33    18    22   ar
    34    18    23    1
    35     9    10    1
    36     9    11    1
    37    10    12    1
    38    11     5    1
    39    33    34    1
    40    33    35    1
    41    34    36    1
    42    35    37    1
    43    36    42    1
    44    20    21   ar
    45    21    22   ar
@<TRIPOS>MOLECULE
*****
 43 45 0 0 0
SMALL
GASTEIGER

@<TRIPOS>ATOM
      1 P          22.4269   71.4138   -2.3541 P.3     1  UNL1        0.2189
      2 O          22.0219   72.8538   -2.9705 O.co2   1  UNL1       -0.4371
      3 O          23.5261   70.6988   -3.0834 O.2     1  UNL1       -0.5170
      4 O          21.0186   70.6233   -2.2562 O.3     1  UNL1       -0.3112
      5 C          20.4053   70.1834   -3.4555 C.3     1  UNL1        0.1811
      6 O          19.1498   72.0613   -4.2744 O.3     1  UNL1       -0.3308
      7 O          16.7202   70.3303   -3.9721 O.3     1  UNL1       -0.3794
      8 O          17.2204   70.1902   -6.6492 O.3     1  UNL1       -0.3779
      9 C          18.0413   69.9690   -4.3713 C.3     1  UNL1        0.1713
     10 C          18.3105   70.4398   -5.7854 C.3     1  UNL1        0.1895
     11 C          19.0221   70.8102   -3.5639 C.3     1  UNL1        0.1764
     12 C          18.5662   71.9232   -5.5803 C.3     1  UNL1        0.2383
     13 H          16.0761   69.8058   -4.4741 H       1  UNL1        0.2105
     14 H          17.0983   69.2330   -6.7476 H       1  UNL1        0.2106
     15 O          17.7776   72.9803   -8.0781 O.2     1  UNL1       -0.2464
     16 O          22.1273   73.9647   -9.2410 O.2     1  UNL1       -0.2670
     17 N          19.4718   72.4628   -6.5551 N.ar    1  UNL1       -0.2551
     18 N          19.9441   73.4697   -8.6550 N.ar    1  UNL1       -0.2743
     19 C          18.9734   72.9678   -7.7787 C.ar    1  UNL1        0.3323
     20 C          20.8373   72.4879   -6.2934 C.ar    1  UNL1        0.0869
     21 C          21.7500   72.9688   -7.1402 C.ar    1  UNL1        0.0795
     22 C          21.3126   73.5153   -8.4409 C.ar    1  UNL1        0.2626
     23 H          19.6202   73.8265   -9.5139 H       1  UNL1        0.1734
     24 O          22.7576   71.7594   -0.8101 O.3     1  UNL1       -0.2703
     25 P          21.7829   71.9845    0.4597 P.3     1  UNL1        0.2208
     26 O          21.7688   70.5349    1.1781 O.co2   1  UNL1       -0.4371
     27 O          20.4233   72.5134    0.1056 O.2     1  UNL1       -0.5170
     28 O          22.6275   72.9274    1.4609 O.3     1  UNL1       -0.2858
     29 O          23.9865   73.1367    3.3912 O.3     1  UNL1       -0.3258
     30 O          20.3796   74.3575    4.9882 O.3     1  UNL1       -0.3794
     31 O          22.4462   76.2935    4.5096 O.3     1  UNL1       -0.3794
     32 O          20.4500   72.1904    3.0703 O.3     1  UNL1       -0.3775
     33 C          21.3753   74.2239    3.9703 C.3     1  UNL1        0.1715
     34 C          22.6618   74.8856    4.4682 C.3     1  UNL1        0.1694
     35 C          21.6073   72.7402    3.6907 C.3     1  UNL1        0.1967
     36 C          23.8465   74.5532    3.5510 C.3     1  UNL1        0.1761
     37 C          22.8378   72.5171    2.8095 C.3     1  UNL1        0.2704
     38 H          20.2272   75.2973    5.1702 H       1  UNL1        0.2105
     39 H          21.6953   76.4898    5.0916 H       1  UNL1        0.2105
     40 H          19.6781   72.3378    3.6381 H       1  UNL1        0.2106
     41 O          25.6885   74.1020    5.0044 O.3     1  UNL1       -0.3794
     42 C          25.1683   75.0715    4.1136 C.3     1  UNL1        0.1693
     43 H          26.5300   74.4181    5.3700 H       1  UNL1        0.2105
@<TRIPOS>UNITY_ATOM_ATTR
2 1
charge -1
26 1
charge -1
@<TRIPOS>BOND
     1    25    28    1
     2    25    24    1
     3    25    26    1
     4    25    27    2
     5     1     4    1
     6     1    24    1
     7     1     2    1
     8     1     3    2
     9     6    11    1
    10     6    12    1
    11    29    36    1
    12    29    37    1
    13     7     9    1
    14     7    13    1
    15     8    10    1
    16     8    14    1
    17    28    37    1
    18     4     5    1
    19    30    33    1
    20    30    38    1
    21    31    34    1
    22    31    39    1
    23    32    35    1
    24    32    40    1
    25    41    42    1
    26    41    43    1
    27    15    19    2
    28    16    22    2
    29    17    12    1
    30    17    19   ar
    31    17    20   ar
    32    18    19   ar
    33    18    22   ar
    34    18    23    1
    35     9    10    1
    36     9    11    1
    37    10    12    1
    38    11     5    1
    39    33    34    1
    40    33    35    1
    41    34    36    1
    42    35    37    1
    43    36    42    1
    44    20    21   ar
    45    21    22   ar
@<TRIPOS>MOLECULE
*****
 43 45 0 0 0
SMALL
GASTEIGER

@<TRIPOS>ATOM
      1 P          22.4020   73.2758   -4.3604 P.3     1  UNL1        0.2189
      2 O          22.0133   74.7822   -3.9167 O.co2   1  UNL1       -0.4371
      3 O          23.8744   73.0000   -4.4450 O.2     1  UNL1       -0.5170
      4 O          21.5643   73.0445   -5.7253 O.3     1  UNL1       -0.3112
      5 C          20.1966   72.6875   -5.6268 C.3     1  UNL1        0.1811
      6 O          20.2182   74.8572   -6.6592 O.3     1  UNL1       -0.3308
      7 O          17.2868   74.4508   -7.1409 O.3     1  UNL1       -0.3794
      8 O          18.3739   73.8810   -9.5761 O.3     1  UNL1       -0.3779
      9 C          18.3474   73.4973   -7.1754 C.3     1  UNL1        0.1713
     10 C          19.1757   73.6773   -8.4305 C.3     1  UNL1        0.1895
     11 C          19.3432   73.8635   -6.0819 C.3     1  UNL1        0.1764
     12 C          20.0164   74.8936   -8.0814 C.3     1  UNL1        0.2383
     13 H          16.6379   74.2374   -7.8304 H       1  UNL1        0.2105
     14 H          17.8584   73.0795   -9.7569 H       1  UNL1        0.2106
     15 O          21.3143   72.5608   -9.0044 O.2     1  UNL1       -0.2464
     16 O          24.9205   74.9659  -10.5702 O.2     1  UNL1       -0.2670
     17 N          21.2951   74.8811   -8.7343 N.ar    1  UNL1       -0.2551
     18 N          23.1088   73.7603   -9.7835 N.ar    1  UNL1       -0.2743
     19 C          21.8597   73.6556   -9.1583 C.ar    1  UNL1        0.3323
     20 C          21.9754   76.0749   -8.9485 C.ar    1  UNL1        0.0869
     21 C          23.1665   76.1576   -9.5450 C.ar    1  UNL1        0.0795
     22 C          23.8254   74.9231  -10.0181 C.ar    1  UNL1        0.2626
     23 H          23.5216   72.9193  -10.0870 H       1  UNL1        0.1734
     24 O          21.6073   72.3644   -3.2876 O.3     1  UNL1       -0.2703
     25 P          21.8294   70.8312   -2.8261 P.3     1  UNL1        0.2208
     26 O          23.4062   70.5876   -3.0944 O.co2   1  UNL1       -0.4371
     27 O          20.9256   69.8460   -3.5090 O.2     1  UNL1       -0.5170
     28 O          21.6898   70.8642   -1.2185 O.3     1  UNL1       -0.2858
     29 O          22.9543   72.7650   -0.5825 O.3     1  UNL1       -0.3258
     30 O          21.5714   71.6183    3.1355 O.3     1  UNL1       -0.3794
     31 O          20.4879   73.9636    1.8810 O.3     1  UNL1       -0.3794
     32 O          22.3522   69.6097    1.2028 O.3     1  UNL1       -0.3775
     33 C          21.5007   71.8028    1.7190 C.3     1  UNL1        0.1715
     34 C          21.6593   73.2952    1.4213 C.3     1  UNL1        0.1694
     35 C          22.6179   71.0004    1.0547 C.3     1  UNL1        0.1967
     36 C          21.8612   73.5422   -0.0798 C.3     1  UNL1        0.1761
     37 C          22.7664   71.3572   -0.4254 C.3     1  UNL1        0.2704
     38 H          20.8644   72.1249    3.5633 H       1  UNL1        0.2105
     39 H          20.3718   73.7992    2.8300 H       1  UNL1        0.2105
     40 H          22.2606   69.3965    2.1441 H       1  UNL1        0.2106
     41 O          23.5810   75.1846   -0.3113 O.3     1  UNL1       -0.3794
     42 C          22.1784   75.0053   -0.3811 C.3     1  UNL1        0.1693
     43 H          23.7977   76.1113   -0.5012 H       1  UNL1        0.2105
@<TRIPOS>UNITY_ATOM_ATTR
2 1
charge -1
26 1
charge -1
@<TRIPOS>BOND
     1    25    28    1
     2    25    24    1
     3    25    26    1
     4    25    27    2
     5     1     4    1
     6     1    24    1
     7     1     2    1
     8     1     3    2
     9     6    11    1
    10     6    12    1
    11    29    36    1
    12    29    37    1
    13     7     9    1
    14     7    13    1
    15     8    10    1
    16     8    14    1
    17    28    37    1
    18     4     5    1
    19    30    33    1
    20    30    38    1
    21    31    34    1
    22    31    39    1
    23    32    35    1
    24    32    40    1
    25    41    42    1
    26    41    43    1
    27    15    19    2
    28    16    22    2
    29    17    12    1
    30    17    19   ar
    31    17    20   ar
    32    18    19   ar
    33    18    22   ar
    34    18    23    1
    35     9    10    1
    36     9    11    1
    37    10    12    1
    38    11     5    1
    39    33    34    1
    40    33    35    1
    41    34    36    1
    42    35    37    1
    43    36    42    1
    44    20    21   ar
    45    21    22   ar
@<TRIPOS>MOLECULE
*****
 43 45 0 0 0
SMALL
GASTEIGER

@<TRIPOS>ATOM
      1 P          19.5575   69.4941   -3.7352 P.3     1  UNL1        0.2189
      2 O          19.7436   69.8976   -5.2908 O.co2   1  UNL1       -0.4371
      3 O          18.9199   68.1565   -3.4993 O.2     1  UNL1       -0.5170
      4 O          18.7853   70.7634   -3.0945 O.3     1  UNL1       -0.3112
      5 C          17.4981   71.0913   -3.5879 C.3     1  UNL1        0.1811
      6 O          18.2839   72.8455   -5.0298 O.3     1  UNL1       -0.3308
      7 O          15.9912   74.4733   -3.9882 O.3     1  UNL1       -0.3794
      8 O          15.0705   73.6336   -6.4139 O.3     1  UNL1       -0.3779
      9 C          16.0538   73.0745   -4.2618 C.3     1  UNL1        0.1713
     10 C          16.0280   72.8292   -5.7560 C.3     1  UNL1        0.1895
     11 C          17.4457   72.5841   -3.8829 C.3     1  UNL1        0.1764
     12 C          17.4531   73.1714   -6.1561 C.3     1  UNL1        0.2383
     13 H          15.1112   74.8092   -4.2219 H       1  UNL1        0.2105
     14 H          14.1803   73.3777   -6.1261 H       1  UNL1        0.2106
     15 O          16.3749   70.6831   -6.9460 O.2     1  UNL1       -0.2464
     16 O          19.2367   70.3787  -10.5458 O.2     1  UNL1       -0.2670
     17 N          17.8973   72.4200   -7.2961 N.ar    1  UNL1       -0.2551
     18 N          17.8006   70.5336   -8.7379 N.ar    1  UNL1       -0.2743
     19 C          17.2900   71.1807   -7.6053 C.ar    1  UNL1        0.3323
     20 C          18.9240   72.9132   -8.0939 C.ar    1  UNL1        0.0869
     21 C          19.4004   72.2833   -9.1698 C.ar    1  UNL1        0.0795
     22 C          18.8205   70.9825   -9.5619 C.ar    1  UNL1        0.2626
     23 H          17.3931   69.6684   -8.9724 H       1  UNL1        0.1734
     24 O          21.0533   69.6407   -3.1402 O.3     1  UNL1       -0.2703
     25 P          21.9907   70.9412   -2.9332 P.3     1  UNL1        0.2208
     26 O          21.3097   72.0469   -3.8982 O.co2   1  UNL1       -0.4371
     27 O          23.4478   70.6985   -3.2015 O.2     1  UNL1       -0.5170
     28 O          21.6616   71.4480   -1.4367 O.3     1  UNL1       -0.2858
     29 O          23.2386   72.9001   -0.4263 O.3     1  UNL1       -0.3258
     30 O          21.1765   71.7143    2.9490 O.3     1  UNL1       -0.3794
     31 O          20.8249   74.3783    1.9354 O.3     1  UNL1       -0.3794
     32 O          21.7110   69.8063    0.8387 O.3     1  UNL1       -0.3775
     33 C          21.3274   72.0684    1.5716 C.3     1  UNL1        0.1715
     34 C          21.8598   73.5009    1.5003 C.3     1  UNL1        0.1694
     35 C          22.3048   71.0980    0.9110 C.3     1  UNL1        0.1967
     36 C          22.2988   73.8584    0.0739 C.3     1  UNL1        0.1761
     37 C          22.7148   71.5719   -0.4845 C.3     1  UNL1        0.2704
     38 H          20.5567   72.3263    3.3742 H       1  UNL1        0.2105
     39 H          20.5565   74.1416    2.8372 H       1  UNL1        0.2105
     40 H          21.4562   69.5174    1.7284 H       1  UNL1        0.2106
     41 O          23.9831   75.1807   -0.9862 O.3     1  UNL1       -0.3794
     42 C          22.9781   75.2247    0.0100 C.3     1  UNL1        0.1693
     43 H          24.4237   76.0437   -1.0383 H       1  UNL1        0.2105
@<TRIPOS>UNITY_ATOM_ATTR
2 1
charge -1
26 1
charge -1
@<TRIPOS>BOND
     1    25    28    1
     2    25    24    1
     3    25    26    1
     4    25    27    2
     5     1     4    1
     6     1    24    1
     7     1     2    1
     8     1     3    2
     9     6    11    1
    10     6    12    1
    11    29    36    1
    12    29    37    1
    13     7     9    1
    14     7    13    1
    15     8    10    1
    16     8    14    1
    17    28    37    1
    18     4     5    1
    19    30    33    1
    20    30    38    1
    21    31    34    1
    22    31    39    1
    23    32    35    1
    24    32    40    1
    25    41    42    1
    26    41    43    1
    27    15    19    2
    28    16    22    2
    29    17    12    1
    30    17    19   ar
    31    17    20   ar
    32    18    19   ar
    33    18    22   ar
    34    18    23    1
    35     9    10    1
    36     9    11    1
    37    10    12    1
    38    11     5    1
    39    33    34    1
    40    33    35    1
    41    34    36    1
    42    35    37    1
    43    36    42    1
    44    20    21   ar
    45    21    22   ar
@<TRIPOS>MOLECULE
*****
 43 45 0 0 0
SMALL
GASTEIGER

@<TRIPOS>ATOM
      1 P          19.1565   69.3708   -3.0559 P.3     1  UNL1        0.2189
      2 O          19.0134   67.8628   -3.6240 O.co2   1  UNL1       -0.4371
      3 O          17.8857   69.9751   -2.5351 O.2     1  UNL1       -0.5170
      4 O          19.8733   70.1744   -4.2635 O.3     1  UNL1       -0.3112
      5 C          19.2404   70.1954   -5.5311 C.3     1  UNL1        0.1811
      6 O          18.9055   72.5591   -5.8043 O.3     1  UNL1       -0.3308
      7 O          16.0216   71.9038   -6.2986 O.3     1  UNL1       -0.3794
      8 O          16.9820   72.2990   -8.8201 O.3     1  UNL1       -0.3779
      9 C          17.1894   71.1754   -6.6740 C.3     1  UNL1        0.1713
     10 C          17.8889   71.8621   -7.8285 C.3     1  UNL1        0.1895
     11 C          18.2115   71.3174   -5.5530 C.3     1  UNL1        0.1764
     12 C          18.5919   73.0140   -7.1307 C.3     1  UNL1        0.2383
     13 H          15.3541   71.8276   -6.9991 H       1  UNL1        0.2105
     14 H          16.5607   71.5299   -9.2346 H       1  UNL1        0.2106
     15 O          20.3798   71.2008   -8.3527 O.2     1  UNL1       -0.2464
     16 O          23.2261   74.5899   -9.6387 O.2     1  UNL1       -0.2670
     17 N          19.8077   73.3953   -7.7925 N.ar    1  UNL1       -0.2551
     18 N          21.7955   72.8898   -8.9922 N.ar    1  UNL1       -0.2743
     19 C          20.6358   72.4065   -8.3730 C.ar    1  UNL1        0.3323
     20 C          20.1679   74.7367   -7.8614 C.ar    1  UNL1        0.0869
     21 C          21.2779   75.1810   -8.4545 C.ar    1  UNL1        0.0795
     22 C          22.1977   74.2127   -9.0857 C.ar    1  UNL1        0.2626
     23 H          22.3879   72.2190   -9.4032 H       1  UNL1        0.1734
     24 O          20.3361   69.2355   -1.9590 O.3     1  UNL1       -0.2703
     25 P          21.2047   70.3612   -1.1899 P.3     1  UNL1        0.2208
     26 O          22.5920   70.3918   -2.0218 O.co2   1  UNL1       -0.4371
     27 O          21.3702   70.1120    0.2813 O.2     1  UNL1       -0.5170
     28 O          20.4798   71.7563   -1.5546 O.3     1  UNL1       -0.2858
     29 O          21.7417   73.3362   -0.3184 O.3     1  UNL1       -0.3258
     30 O          19.2131   75.9237   -2.3088 O.3     1  UNL1       -0.3794
     31 O          21.9756   75.7686   -3.0784 O.3     1  UNL1       -0.3794
     32 O          18.2095   73.3906   -1.3311 O.3     1  UNL1       -0.3775
     33 C          20.0187   74.7525   -2.1517 C.3     1  UNL1        0.1715
     34 C          21.4586   75.1935   -1.8816 C.3     1  UNL1        0.1694
     35 C          19.4803   73.9294   -0.9830 C.3     1  UNL1        0.1967
     36 C          22.3274   74.0082   -1.4396 C.3     1  UNL1        0.1761
     37 C          20.4430   72.8067   -0.5919 C.3     1  UNL1        0.2704
     38 H          19.5493   76.4505   -3.0496 H       1  UNL1        0.2105
     39 H          21.4178   76.5155   -3.3469 H       1  UNL1        0.2105
     40 H          17.6091   74.1112   -1.5764 H       1  UNL1        0.2106
     41 O          23.7806   74.4663    0.4008 O.3     1  UNL1       -0.3794
     42 C          23.7254   74.4512   -1.0138 C.3     1  UNL1        0.1693
     43 H          24.6648   74.7462    0.6863 H       1  UNL1        0.2105
@<TRIPOS>UNITY_ATOM_ATTR
2 1
charge -1
26 1
charge -1
@<TRIPOS>BOND
     1    25    28    1
     2    25    24    1
     3    25    26    1
     4    25    27    2
     5     1     4    1
     6     1    24    1
     7     1     2    1
     8     1     3    2
     9     6    11    1
    10     6    12    1
    11    29    36    1
    12    29    37    1
    13     7     9    1
    14     7    13    1
    15     8    10    1
    16     8    14    1
    17    28    37    1
    18     4     5    1
    19    30    33    1
    20    30    38    1
    21    31    34    1
    22    31    39    1
    23    32    35    1
    24    32    40    1
    25    41    42    1
    26    41    43    1
    27    15    19    2
    28    16    22    2
    29    17    12    1
    30    17    19   ar
    31    17    20   ar
    32    18    19   ar
    33    18    22   ar
    34    18    23    1
    35     9    10    1
    36     9    11    1
    37    10    12    1
    38    11     5    1
    39    33    34    1
    40    33    35    1
    41    34    36    1
    42    35    37    1
    43    36    42    1
    44    20    21   ar
    45    21    22   ar
@<TRIPOS>MOLECULE
*****
 43 45 0 0 0
SMALL
GASTEIGER

@<TRIPOS>ATOM
      1 P          18.9908   70.2331   -3.2997 P.3     1  UNL1        0.2189
      2 O          18.5044   68.9456   -2.4493 O.co2   1  UNL1       -0.4371
      3 O          18.5584   71.5588   -2.7458 O.2     1  UNL1       -0.5170
      4 O          18.5031   69.9090   -4.8081 O.3     1  UNL1       -0.3112
      5 C          19.1233   70.5955   -5.8813 C.3     1  UNL1        0.1811
      6 O          18.6716   72.8316   -6.6360 O.3     1  UNL1       -0.3308
      7 O          16.4767   71.6302   -8.2883 O.3     1  UNL1       -0.3794
      8 O          18.4656   71.9965  -10.1178 O.3     1  UNL1       -0.3779
      9 C          17.7618   71.0979   -7.9711 C.3     1  UNL1        0.1713
     10 C          18.8364   71.8084   -8.7673 C.3     1  UNL1        0.1895
     11 C          18.1002   71.5083   -6.5433 C.3     1  UNL1        0.1764
     12 C          18.9746   73.1187   -8.0110 C.3     1  UNL1        0.2383
     13 H          16.2387   71.3809   -9.1956 H       1  UNL1        0.2105
     14 H          18.3906   71.1343  -10.5558 H       1  UNL1        0.2106
     15 O          21.3343   71.5666   -8.0303 O.2     1  UNL1       -0.2464
     16 O          24.0106   75.3071   -8.3261 O.2     1  UNL1       -0.2670
     17 N          20.3015   73.6610   -8.0927 N.ar    1  UNL1       -0.2551
     18 N          22.6650   73.4303   -8.1778 N.ar    1  UNL1       -0.2743
     19 C          21.4195   72.7947   -8.0943 C.ar    1  UNL1        0.3323
     20 C          20.4841   75.0374   -8.1704 C.ar    1  UNL1        0.0869
     21 C          21.6785   75.6278   -8.2482 C.ar    1  UNL1        0.0795
     22 C          22.8980   74.7942   -8.2556 C.ar    1  UNL1        0.2626
     23 H          23.4583   72.8468   -8.1801 H       1  UNL1        0.1734
     24 O          20.5922   70.0292   -3.3840 O.3     1  UNL1       -0.2703
     25 P          21.8101   71.0208   -3.0013 P.3     1  UNL1        0.2208
     26 O          21.4610   72.3709   -3.8215 O.co2   1  UNL1       -0.4371
     27 O          23.1732   70.4590   -3.2846 O.2     1  UNL1       -0.5170
     28 O          21.5533   71.4053   -1.4549 O.3     1  UNL1       -0.2858
     29 O          23.2346   72.7884   -0.5185 O.3     1  UNL1       -0.3258
     30 O          21.2871   71.6775    2.9490 O.3     1  UNL1       -0.3794
     31 O          20.9978   74.3569    1.9564 O.3     1  UNL1       -0.3794
     32 O          21.6426   69.7558    0.8136 O.3     1  UNL1       -0.3775
     33 C          21.3873   72.0294    1.5665 C.3     1  UNL1        0.1715
     34 C          21.9741   73.4392    1.4717 C.3     1  UNL1        0.1694
     35 C          22.2918   71.0219    0.8592 C.3     1  UNL1        0.1967
     36 C          22.3596   73.7828    0.0266 C.3     1  UNL1        0.1761
     37 C          22.6546   71.4829   -0.5535 C.3     1  UNL1        0.2704
     38 H          20.7137   72.3131    3.4038 H       1  UNL1        0.2105
     39 H          20.7628   74.1285    2.8695 H       1  UNL1        0.2105
     40 H          21.4184   69.4749    1.7140 H       1  UNL1        0.2106
     41 O          24.4408   74.8711   -0.4132 O.3     1  UNL1       -0.3794
     42 C          23.0906   75.1203   -0.0677 C.3     1  UNL1        0.1693
     43 H          24.9183   75.7134   -0.4771 H       1  UNL1        0.2105
@<TRIPOS>UNITY_ATOM_ATTR
2 1
charge -1
26 1
charge -1
@<TRIPOS>BOND
     1    25    28    1
     2    25    24    1
     3    25    26    1
     4    25    27    2
     5     1     4    1
     6     1    24    1
     7     1     2    1
     8     1     3    2
     9     6    11    1
    10     6    12    1
    11    29    36    1
    12    29    37    1
    13     7     9    1
    14     7    13    1
    15     8    10    1
    16     8    14    1
    17    28    37    1
    18     4     5    1
    19    30    33    1
    20    30    38    1
    21    31    34    1
    22    31    39    1
    23    32    35    1
    24    32    40    1
    25    41    42    1
    26    41    43    1
    27    15    19    2
    28    16    22    2
    29    17    12    1
    30    17    19   ar
    31    17    20   ar
    32    18    19   ar
    33    18    22   ar
    34    18    23    1
    35     9    10    1
    36     9    11    1
    37    10    12    1
    38    11     5    1
    39    33    34    1
    40    33    35    1
    41    34    36    1
    42    35    37    1
    43    36    42    1
    44    20    21   ar
    45    21    22   ar
@<TRIPOS>MOLECULE
*****
 43 45 0 0 0
SMALL
GASTEIGER

@<TRIPOS>ATOM
      1 P          22.6200   73.2023   -4.6574 P.3     1  UNL1        0.2189
      2 O          21.9457   74.6708   -4.5772 O.co2   1  UNL1       -0.4371
      3 O          24.0103   73.1121   -4.1002 O.2     1  UNL1       -0.5170
      4 O          22.4578   72.7848   -6.2122 O.3     1  UNL1       -0.3112
      5 C          21.2160   73.0254   -6.8508 C.3     1  UNL1        0.1811
      6 O          19.1512   71.8001   -6.7550 O.3     1  UNL1       -0.3308
      7 O          20.4004   69.9075   -8.7167 O.3     1  UNL1       -0.3794
      8 O          18.7914   71.4328  -10.3045 O.3     1  UNL1       -0.3779
      9 C          20.5380   71.3239   -8.6167 C.3     1  UNL1        0.1713
     10 C          19.2823   72.0105   -9.1120 C.3     1  UNL1        0.1895
     11 C          20.5397   71.6919   -7.1382 C.3     1  UNL1        0.1764
     12 C          18.3362   71.8219   -7.9383 C.3     1  UNL1        0.2383
     13 H          20.3971   69.6484   -9.6520 H       1  UNL1        0.2105
     14 H          19.4284   71.5794  -11.0211 H       1  UNL1        0.2106
     15 O          15.9002   71.6422   -6.5201 O.2     1  UNL1       -0.2464
     16 O          14.7507   75.9772   -7.5821 O.2     1  UNL1       -0.2670
     17 N          17.3816   72.8885   -7.8275 N.ar    1  UNL1       -0.2551
     18 N          15.3299   73.8009   -7.0499 N.ar    1  UNL1       -0.2743
     19 C          16.1886   72.6951   -7.0928 C.ar    1  UNL1        0.3323
     20 C          17.6328   74.1101   -8.4428 C.ar    1  UNL1        0.0869
     21 C          16.8031   75.1543   -8.3934 C.ar    1  UNL1        0.0795
     22 C          15.5345   75.0352   -7.6461 C.ar    1  UNL1        0.2626
     23 H          14.4924   73.6892   -6.5440 H       1  UNL1        0.1734
     24 O          21.5349   72.2629   -3.9138 O.3     1  UNL1       -0.2703
     25 P          21.7107   70.8771   -3.1004 P.3     1  UNL1        0.2208
     26 O          23.2943   70.5709   -3.2270 O.co2   1  UNL1       -0.4371
     27 O          20.8245   69.7648   -3.5812 O.2     1  UNL1       -0.5170
     28 O          21.4962   71.2818   -1.5528 O.3     1  UNL1       -0.2858
     29 O          23.1928   72.6956   -0.6928 O.3     1  UNL1       -0.3258
     30 O          21.3591   71.6342    2.8515 O.3     1  UNL1       -0.3794
     31 O          21.0174   74.2921    1.8187 O.3     1  UNL1       -0.3794
     32 O          21.6673   69.6758    0.7421 O.3     1  UNL1       -0.3775
     33 C          21.4150   71.9609    1.4602 C.3     1  UNL1        0.1715
     34 C          21.9866   73.3734    1.3220 C.3     1  UNL1        0.1694
     35 C          22.3066   70.9477    0.7449 C.3     1  UNL1        0.1967
     36 C          22.3259   73.6930   -0.1402 C.3     1  UNL1        0.1761
     37 C          22.6231   71.3851   -0.6864 C.3     1  UNL1        0.2704
     38 H          20.7941   72.2735    3.3114 H       1  UNL1        0.2105
     39 H          20.8116   74.0790    2.7425 H       1  UNL1        0.2105
     40 H          21.4724   69.4099    1.6539 H       1  UNL1        0.2106
     41 O          24.2124   75.0046    0.5153 O.3     1  UNL1       -0.3794
     42 C          23.0423   75.0343   -0.2810 C.3     1  UNL1        0.1693
     43 H          24.6789   75.8518    0.4353 H       1  UNL1        0.2105
@<TRIPOS>UNITY_ATOM_ATTR
2 1
charge -1
26 1
charge -1
@<TRIPOS>BOND
     1    25    28    1
     2    25    24    1
     3    25    26    1
     4    25    27    2
     5     1     4    1
     6     1    24    1
     7     1     2    1
     8     1     3    2
     9     6    11    1
    10     6    12    1
    11    29    36    1
    12    29    37    1
    13     7     9    1
    14     7    13    1
    15     8    10    1
    16     8    14    1
    17    28    37    1
    18     4     5    1
    19    30    33    1
    20    30    38    1
    21    31    34    1
    22    31    39    1
    23    32    35    1
    24    32    40    1
    25    41    42    1
    26    41    43    1
    27    15    19    2
    28    16    22    2
    29    17    12    1
    30    17    19   ar
    31    17    20   ar
    32    18    19   ar
    33    18    22   ar
    34    18    23    1
    35     9    10    1
    36     9    11    1
    37    10    12    1
    38    11     5    1
    39    33    34    1
    40    33    35    1
    41    34    36    1
    42    35    37    1
    43    36    42    1
    44    20    21   ar
    45    21    22   ar
@<TRIPOS>MOLECULE
*****
 43 45 0 0 0
SMALL
GASTEIGER

@<TRIPOS>ATOM
      1 P          21.6809   73.0330   -5.1570 P.3     1  UNL1        0.2189
      2 O          21.1194   74.5386   -4.9695 O.co2   1  UNL1       -0.4371
      3 O          23.1551   72.9343   -5.4185 O.2     1  UNL1       -0.5170
      4 O          20.7214   72.3995   -6.2954 O.3     1  UNL1       -0.3112
      5 C          21.1100   72.5228   -7.6525 C.3     1  UNL1        0.1811
      6 O          19.4689   70.7679   -7.6255 O.3     1  UNL1       -0.3308
      7 O          18.7897   71.6153  -10.4203 O.3     1  UNL1       -0.3794
      8 O          16.7973   72.7596   -8.9514 O.3     1  UNL1       -0.3779
      9 C          19.1780   72.4148   -9.3044 C.3     1  UNL1        0.1713
     10 C          18.0370   72.5260   -8.3148 C.3     1  UNL1        0.1895
     11 C          20.2158   71.6348   -8.5069 C.3     1  UNL1        0.1764
     12 C          18.0914   71.1770   -7.6182 C.3     1  UNL1        0.2383
     13 H          18.1274   72.0928  -10.9451 H       1  UNL1        0.2105
     14 H          16.8124   73.6297   -9.3797 H       1  UNL1        0.2106
     15 O          17.5091   73.5760   -6.2457 O.2     1  UNL1       -0.2464
     16 O          16.3365   71.3101   -2.4074 O.2     1  UNL1       -0.2670
     17 N          17.6319   71.2432   -6.2596 N.ar    1  UNL1       -0.2551
     18 N          16.9255   72.4458   -4.3357 N.ar    1  UNL1       -0.2743
     19 C          17.3691   72.4985   -5.6633 C.ar    1  UNL1        0.3323
     20 C          17.4458   70.0721   -5.5331 C.ar    1  UNL1        0.0869
     21 C          17.0235   70.0389   -4.2675 C.ar    1  UNL1        0.0795
     22 C          16.7264   71.3073   -3.5710 C.ar    1  UNL1        0.2626
     23 H          16.7365   73.3082   -3.8996 H       1  UNL1        0.1734
     24 O          21.1854   72.2899   -3.8096 O.3     1  UNL1       -0.2703
     25 P          21.8603   71.1052   -2.9413 P.3     1  UNL1        0.2208
     26 O          23.4457   71.3397   -3.1626 O.co2   1  UNL1       -0.4371
     27 O          21.3816   69.7287   -3.3019 O.2     1  UNL1       -0.5170
     28 O          21.5968   71.5238   -1.4050 O.3     1  UNL1       -0.2858
     29 O          23.2677   72.8728   -0.4024 O.3     1  UNL1       -0.3258
     30 O          21.2764   71.6499    3.0020 O.3     1  UNL1       -0.3794
     31 O          21.0019   74.3612    2.0955 O.3     1  UNL1       -0.3794
     32 O          21.6566   69.7997    0.8084 O.3     1  UNL1       -0.3775
     33 C          21.3940   72.0474    1.6333 C.3     1  UNL1        0.1715
     34 C          21.9833   73.4588    1.5927 C.3     1  UNL1        0.1694
     35 C          22.3063   71.0627    0.9041 C.3     1  UNL1        0.1967
     36 C          22.3869   73.8497    0.1646 C.3     1  UNL1        0.1761
     37 C          22.6869   71.5700   -0.4880 C.3     1  UNL1        0.2704
     38 H          20.6981   72.2708    3.4706 H       1  UNL1        0.2105
     39 H          20.7554   74.1029    2.9976 H       1  UNL1        0.2105
     40 H          21.4210   69.4893    1.6962 H       1  UNL1        0.2106
     41 O          24.5136   74.9378    0.1173 O.3     1  UNL1       -0.3794
     42 C          23.1203   75.1886    0.1238 C.3     1  UNL1        0.1693
     43 H          24.9932   75.7810    0.0912 H       1  UNL1        0.2105
@<TRIPOS>UNITY_ATOM_ATTR
2 1
charge -1
26 1
charge -1
@<TRIPOS>BOND
     1    25    28    1
     2    25    24    1
     3    25    26    1
     4    25    27    2
     5     1     4    1
     6     1    24    1
     7     1     2    1
     8     1     3    2
     9     6    11    1
    10     6    12    1
    11    29    36    1
    12    29    37    1
    13     7     9    1
    14     7    13    1
    15     8    10    1
    16     8    14    1
    17    28    37    1
    18     4     5    1
    19    30    33    1
    20    30    38    1
    21    31    34    1
    22    31    39    1
    23    32    35    1
    24    32    40    1
    25    41    42    1
    26    41    43    1
    27    15    19    2
    28    16    22    2
    29    17    12    1
    30    17    19   ar
    31    17    20   ar
    32    18    19   ar
    33    18    22   ar
    34    18    23    1
    35     9    10    1
    36     9    11    1
    37    10    12    1
    38    11     5    1
    39    33    34    1
    40    33    35    1
    41    34    36    1
    42    35    37    1
    43    36    42    1
    44    20    21   ar
    45    21    22   ar
@<TRIPOS>MOLECULE
*****
 43 45 0 0 0
SMALL
GASTEIGER

@<TRIPOS>ATOM
      1 P          22.5638   72.9422   -4.5823 P.3     1  UNL1        0.2189
      2 O          22.3232   73.1964   -6.1618 O.co2   1  UNL1       -0.4371
      3 O          24.0027   72.8444   -4.1681 O.2     1  UNL1       -0.5170
      4 O          21.6486   71.6492   -4.2531 O.3     1  UNL1       -0.3112
      5 C          20.3936   71.5269   -4.8996 C.3     1  UNL1        0.1811
      6 O          18.2164   72.2305   -4.1655 O.3     1  UNL1       -0.3308
      7 O          18.1556   69.7108   -2.5412 O.3     1  UNL1       -0.3794
      8 O          16.6208   69.0633   -4.7003 O.3     1  UNL1       -0.3779
      9 C          18.7169   69.9381   -3.8330 C.3     1  UNL1        0.1713
     10 C          17.6197   70.0481   -4.8711 C.3     1  UNL1        0.1895
     11 C          19.3095   71.3417   -3.8467 C.3     1  UNL1        0.1764
     12 C          17.1000   71.4556   -4.6324 C.3     1  UNL1        0.2383
     13 H          17.7712   68.8202   -2.5081 H       1  UNL1        0.2105
     14 H          17.0005   68.1858   -4.8630 H       1  UNL1        0.2106
     15 O          17.6890   70.5713   -7.2495 O.2     1  UNL1       -0.2464
     16 O          15.0558   73.8447   -9.1449 O.2     1  UNL1       -0.2670
     17 N          16.5817   72.0581   -5.8281 N.ar    1  UNL1       -0.2551
     18 N          16.3772   72.2018   -8.1911 N.ar    1  UNL1       -0.2743
     19 C          16.9401   71.5380   -7.0936 C.ar    1  UNL1        0.3323
     20 C          15.7277   73.1521   -5.7388 C.ar    1  UNL1        0.0869
     21 C          15.2005   73.7745   -6.7951 C.ar    1  UNL1        0.0795
     22 C          15.5245   73.2937   -8.1537 C.ar    1  UNL1        0.2626
     23 H          16.6131   71.8572   -9.0830 H       1  UNL1        0.1734
     24 O          21.7454   74.1523   -3.8905 O.3     1  UNL1       -0.2703
     25 P          21.5812   74.5717   -2.3380 P.3     1  UNL1        0.2208
     26 O          20.0517   75.0927   -2.2542 O.co2   1  UNL1       -0.4371
     27 O          22.6005   75.5637   -1.8575 O.2     1  UNL1       -0.5170
     28 O          21.5796   73.1719   -1.5347 O.3     1  UNL1       -0.2858
     29 O          23.1495   73.4019    0.2258 O.3     1  UNL1       -0.3258
     30 O          22.0131   69.4835    0.8628 O.3     1  UNL1       -0.3794
     31 O          21.1354   71.5276    2.6792 O.3     1  UNL1       -0.3794
     32 O          22.3106   70.4796   -1.8388 O.3     1  UNL1       -0.3775
     33 C          21.8229   70.8512    0.4905 C.3     1  UNL1        0.1715
     34 C          22.1515   71.7278    1.7006 C.3     1  UNL1        0.1694
     35 C          22.7464   71.1828   -0.6803 C.3     1  UNL1        0.1967
     36 C          22.2297   73.2090    1.3067 C.3     1  UNL1        0.1761
     37 C          22.7890   72.6866   -0.9576 C.3     1  UNL1        0.2704
     38 H          21.4293   69.2663    1.6055 H       1  UNL1        0.2105
     39 H          21.0961   70.5883    2.9188 H       1  UNL1        0.2105
     40 H          22.2882   69.5289   -1.6504 H       1  UNL1        0.2106
     41 O          23.3633   73.2580    3.4095 O.3     1  UNL1       -0.3794
     42 C          22.7102   74.0835    2.4627 C.3     1  UNL1        0.1693
     43 H          23.6748   73.8012    4.1508 H       1  UNL1        0.2105
@<TRIPOS>UNITY_ATOM_ATTR
2 1
charge -1
26 1
charge -1
@<TRIPOS>BOND
     1    25    28    1
     2    25    24    1
     3    25    26    1
     4    25    27    2
     5     1     4    1
     6     1    24    1
     7     1     2    1
     8     1     3    2
     9     6    11    1
    10     6    12    1
    11    29    36    1
    12    29    37    1
    13     7     9    1
    14     7    13    1
    15     8    10    1
    16     8    14    1
    17    28    37    1
    18     4     5    1
    19    30    33    1
    20    30    38    1
    21    31    34    1
    22    31    39    1
    23    32    35    1
    24    32    40    1
    25    41    42    1
    26    41    43    1
    27    15    19    2
    28    16    22    2
    29    17    12    1
    30    17    19   ar
    31    17    20   ar
    32    18    19   ar
    33    18    22   ar
    34    18    23    1
    35     9    10    1
    36     9    11    1
    37    10    12    1
    38    11     5    1
    39    33    34    1
    40    33    35    1
    41    34    36    1
    42    35    37    1
    43    36    42    1
    44    20    21   ar
    45    21    22   ar
@<TRIPOS>MOLECULE
*****
 43 45 0 0 0
SMALL
GASTEIGER

@<TRIPOS>ATOM
      1 P          22.4799   75.3921   -3.3226 P.3     1  UNL1        0.2189
      2 O          23.9815   74.8277   -3.5321 O.co2   1  UNL1       -0.4371
      3 O          22.3703   76.8863   -3.2393 O.2     1  UNL1       -0.5170
      4 O          21.9335   74.5748   -2.0375 O.3     1  UNL1       -0.3112
      5 C          22.7827   73.6122   -1.4374 C.3     1  UNL1        0.1811
      6 O          20.7037   72.6362   -0.7308 O.3     1  UNL1       -0.3308
      7 O          22.2690   71.3696    1.4910 O.3     1  UNL1       -0.3794
      8 O          21.9997   69.3214   -0.2890 O.3     1  UNL1       -0.3779
      9 C          22.6592   71.6214    0.1421 C.3     1  UNL1        0.1713
     10 C          21.9818   70.6414   -0.7929 C.3     1  UNL1        0.1895
     11 C          22.0420   72.9473   -0.2853 C.3     1  UNL1        0.1764
     12 C          20.5773   71.2132   -0.8850 C.3     1  UNL1        0.2383
     13 H          22.6516   70.5280    1.7864 H       1  UNL1        0.2105
     14 H          22.9148   69.0025   -0.2496 H       1  UNL1        0.2106
     15 O          21.8897   70.0192   -3.0827 O.2     1  UNL1       -0.2464
     16 O          18.0877   70.1932   -5.6820 O.2     1  UNL1       -0.2670
     17 N          19.9543   70.9345   -2.1481 N.ar    1  UNL1       -0.2551
     18 N          19.9955   70.1066   -4.3751 N.ar    1  UNL1       -0.2743
     19 C          20.7022   70.3334   -3.1872 C.ar    1  UNL1        0.3323
     20 C          18.6160   71.2563   -2.3467 C.ar    1  UNL1        0.0869
     21 C          17.9570   71.0347   -3.4860 C.ar    1  UNL1        0.0795
     22 C          18.6658   70.4098   -4.6214 C.ar    1  UNL1        0.2626
     23 H          20.4963   69.6891   -5.1131 H       1  UNL1        0.1734
     24 O          21.6664   74.7253   -4.5500 O.3     1  UNL1       -0.2703
     25 P          22.1799   73.8841   -5.8313 P.3     1  UNL1        0.2208
     26 O          22.8389   72.5636   -5.1684 O.co2   1  UNL1       -0.4371
     27 O          23.1008   74.6467   -6.7392 O.2     1  UNL1       -0.5170
     28 O          20.8300   73.3542   -6.5397 O.3     1  UNL1       -0.2858
     29 O          20.6082   72.4170   -8.7052 O.3     1  UNL1       -0.3258
     30 O          16.9378   74.2866   -8.4163 O.3     1  UNL1       -0.3794
     31 O          17.0877   71.4234   -8.2500 O.3     1  UNL1       -0.3794
     32 O          19.2992   75.5668   -7.3374 O.3     1  UNL1       -0.3775
     33 C          18.0799   73.5761   -7.9305 C.3     1  UNL1        0.1715
     34 C          18.1704   72.2446   -8.6786 C.3     1  UNL1        0.1694
     35 C          19.3318   74.4165   -8.1753 C.3     1  UNL1        0.1967
     36 C          19.5101   71.5468   -8.4076 C.3     1  UNL1        0.1761
     37 C          20.6093   73.6134   -7.9237 C.3     1  UNL1        0.2704
     38 H          16.1394   73.7586   -8.2635 H       1  UNL1        0.2105
     39 H          16.2477   71.8757   -8.4263 H       1  UNL1        0.2105
     40 H          18.4860   76.0668   -7.5064 H       1  UNL1        0.2106
     41 O          18.8279   70.3941  -10.3862 O.3     1  UNL1       -0.3794
     42 C          19.6871   70.2958   -9.2654 C.3     1  UNL1        0.1693
     43 H          18.9300   69.6048  -10.9414 H       1  UNL1        0.2105
@<TRIPOS>UNITY_ATOM_ATTR
2 1
charge -1
26 1
charge -1
@<TRIPOS>BOND
     1    25    28    1
     2    25    24    1
     3    25    26    1
     4    25    27    2
     5     1     4    1
     6     1    24    1
     7     1     2    1
     8     1     3    2
     9     6    11    1
    10     6    12    1
    11    29    36    1
    12    29    37    1
    13     7     9    1
    14     7    13    1
    15     8    10    1
    16     8    14    1
    17    28    37    1
    18     4     5    1
    19    30    33    1
    20    30    38    1
    21    31    34    1
    22    31    39    1
    23    32    35    1
    24    32    40    1
    25    41    42    1
    26    41    43    1
    27    15    19    2
    28    16    22    2
    29    17    12    1
    30    17    19   ar
    31    17    20   ar
    32    18    19   ar
    33    18    22   ar
    34    18    23    1
    35     9    10    1
    36     9    11    1
    37    10    12    1
    38    11     5    1
    39    33    34    1
    40    33    35    1
    41    34    36    1
    42    35    37    1
    43    36    42    1
    44    20    21   ar
    45    21    22   ar
@<TRIPOS>MOLECULE
*****
 43 45 0 0 0
SMALL
GASTEIGER

@<TRIPOS>ATOM
      1 P          22.5370   71.9631   -3.3446 P.3     1  UNL1        0.2189
      2 O          23.5917   70.7363   -3.3364 O.co2   1  UNL1       -0.4371
      3 O          22.6050   72.8654   -2.1477 O.2     1  UNL1       -0.5170
      4 O          21.1097   71.2465   -3.6041 O.3     1  UNL1       -0.3112
      5 C          19.9277   71.9540   -3.2720 C.3     1  UNL1        0.1811
      6 O          17.7036   71.6856   -2.4030 O.3     1  UNL1       -0.3308
      7 O          18.2653   68.7402   -2.3907 O.3     1  UNL1       -0.3794
      8 O          16.7622   69.0492   -4.6449 O.3     1  UNL1       -0.3779
      9 C          18.6846   69.7347   -3.3237 C.3     1  UNL1        0.1713
     10 C          17.5245   70.1537   -4.2024 C.3     1  UNL1        0.1895
     11 C          18.9740   71.0137   -2.5479 C.3     1  UNL1        0.1764
     12 C          16.7429   71.0702   -3.2766 C.3     1  UNL1        0.2383
     13 H          18.0750   67.9139   -2.8628 H       1  UNL1        0.2105
     14 H          17.3030   68.4967   -5.2306 H       1  UNL1        0.2106
     15 O          17.4348   71.9834   -5.8584 O.2     1  UNL1       -0.2464
     16 O          13.9633   75.0144   -5.9162 O.2     1  UNL1       -0.2670
     17 N          16.0368   72.0967   -3.9902 N.ar    1  UNL1       -0.2551
     18 N          15.7056   73.4917   -5.8851 N.ar    1  UNL1       -0.2743
     19 C          16.4666   72.4826   -5.2813 C.ar    1  UNL1        0.3323
     20 C          14.9314   72.7091   -3.4099 C.ar    1  UNL1        0.0869
     21 C          14.2172   73.6708   -3.9984 C.ar    1  UNL1        0.0795
     22 C          14.5997   74.1320   -5.3486 C.ar    1  UNL1        0.2626
     23 H          15.9866   73.7771   -6.7848 H       1  UNL1        0.1734
     24 O          22.8390   72.6927   -4.7551 O.3     1  UNL1       -0.2703
     25 P          22.0079   73.8149   -5.5691 P.3     1  UNL1        0.2208
     26 O          23.1199   74.4609   -6.5507 O.co2   1  UNL1       -0.4371
     27 O          21.2996   74.8100   -4.6961 O.2     1  UNL1       -0.5170
     28 O          21.0383   72.9749   -6.5485 O.3     1  UNL1       -0.2858
     29 O          20.9016   71.9365   -8.6745 O.3     1  UNL1       -0.3258
     30 O          17.9631   74.7986   -9.1479 O.3     1  UNL1       -0.3794
     31 O          17.2202   72.0426   -8.8312 O.3     1  UNL1       -0.3794
     32 O          20.3909   75.4459   -7.7105 O.3     1  UNL1       -0.3775
     33 C          18.7453   73.8408   -8.4296 C.3     1  UNL1        0.1715
     34 C          18.5536   72.4736   -9.0890 C.3     1  UNL1        0.1694
     35 C          20.2137   74.2593   -8.4767 C.3     1  UNL1        0.1967
     36 C          19.5604   71.4506   -8.5460 C.3     1  UNL1        0.1761
     37 C          21.1335   73.1518   -7.9595 C.3     1  UNL1        0.2704
     38 H          17.0296   74.5390   -9.1214 H       1  UNL1        0.2105
     39 H          16.5945   72.6975   -9.1786 H       1  UNL1        0.2105
     40 H          19.8034   76.1393   -8.0479 H       1  UNL1        0.2106
     41 O          18.7749   70.3292  -10.5042 O.3     1  UNL1       -0.3794
     42 C          19.4920   70.1247   -9.3007 C.3     1  UNL1        0.1693
     43 H          18.7237   69.4938  -10.9952 H       1  UNL1        0.2105
@<TRIPOS>UNITY_ATOM_ATTR
2 1
charge -1
26 1
charge -1
@<TRIPOS>BOND
     1    25    28    1
     2    25    24    1
     3    25    26    1
     4    25    27    2
     5     1     4    1
     6     1    24    1
     7     1     2    1
     8     1     3    2
     9     6    11    1
    10     6    12    1
    11    29    36    1
    12    29    37    1
    13     7     9    1
    14     7    13    1
    15     8    10    1
    16     8    14    1
    17    28    37    1
    18     4     5    1
    19    30    33    1
    20    30    38    1
    21    31    34    1
    22    31    39    1
    23    32    35    1
    24    32    40    1
    25    41    42    1
    26    41    43    1
    27    15    19    2
    28    16    22    2
    29    17    12    1
    30    17    19   ar
    31    17    20   ar
    32    18    19   ar
    33    18    22   ar
    34    18    23    1
    35     9    10    1
    36     9    11    1
    37    10    12    1
    38    11     5    1
    39    33    34    1
    40    33    35    1
    41    34    36    1
    42    35    37    1
    43    36    42    1
    44    20    21   ar
    45    21    22   ar
@<TRIPOS>MOLECULE
*****
 43 45 0 0 0
SMALL
GASTEIGER

@<TRIPOS>ATOM
      1 P          16.9211   71.8246   -2.6758 P.3     1  UNL1        0.2189
      2 O          16.8970   73.2433   -3.4530 O.co2   1  UNL1       -0.4371
      3 O          16.0051   71.7355   -1.4907 O.2     1  UNL1       -0.5170
      4 O          18.4904   71.5752   -2.3711 O.3     1  UNL1       -0.3112
      5 C          19.3551   72.6964   -2.3164 C.3     1  UNL1        0.1811
      6 O          21.5735   72.7993   -1.3990 O.3     1  UNL1       -0.3308
      7 O          22.1473   70.3284   -2.9978 O.3     1  UNL1       -0.3794
      8 O          21.7433   69.3338   -0.4910 O.3     1  UNL1       -0.3779
      9 C          20.9469   70.7117   -2.3291 C.3     1  UNL1        0.1713
     10 C          21.1034   70.5467   -0.8318 C.3     1  UNL1        0.1895
     11 C          20.7935   72.2211   -2.4684 C.3     1  UNL1        0.1764
     12 C          21.9306   71.7672   -0.4651 C.3     1  UNL1        0.2383
     13 H          22.2666   69.3681   -2.9228 H       1  UNL1        0.2105
     14 H          21.1778   68.5875   -0.7441 H       1  UNL1        0.2106
     15 O          22.9520   70.5658    1.8783 O.2     1  UNL1       -0.2464
     16 O          20.8336   73.6297    4.5922 O.2     1  UNL1       -0.2670
     17 N          21.6623   72.2305    0.8671 N.ar    1  UNL1       -0.2551
     18 N          21.8965   72.0925    3.2277 N.ar    1  UNL1       -0.2743
     19 C          22.2234   71.5554    1.9760 C.ar    1  UNL1        0.3323
     20 C          20.8512   73.3429    1.0637 C.ar    1  UNL1        0.0869
     21 C          20.5481   73.8418    2.2639 C.ar    1  UNL1        0.0795
     22 C          21.0939   73.1950    3.4746 C.ar    1  UNL1        0.2626
     23 H          22.2758   71.6383    4.0149 H       1  UNL1        0.1734
     24 O          16.6056   70.7608   -3.8513 O.3     1  UNL1       -0.2703
     25 P          17.4930   70.2798   -5.1139 P.3     1  UNL1        0.2208
     26 O          16.4781   69.3284   -5.9398 O.co2   1  UNL1       -0.4371
     27 O          18.7907   69.6240   -4.7399 O.2     1  UNL1       -0.5170
     28 O          17.6502   71.5998   -6.0293 O.3     1  UNL1       -0.2858
     29 O          19.6070   71.3077   -7.3339 O.3     1  UNL1       -0.3258
     30 O          18.5560   75.1072   -8.5626 O.3     1  UNL1       -0.3794
     31 O          18.2017   72.8894  -10.3525 O.3     1  UNL1       -0.3794
     32 O          18.2132   74.3389   -5.7928 O.3     1  UNL1       -0.3775
     33 C          18.3174   73.7652   -8.1298 C.3     1  UNL1        0.1715
     34 C          18.9539   72.8136   -9.1447 C.3     1  UNL1        0.1694
     35 C          18.9365   73.5691   -6.7472 C.3     1  UNL1        0.1967
     36 C          18.9733   71.3728   -8.6168 C.3     1  UNL1        0.1761
     37 C          18.9504   72.0950   -6.3385 C.3     1  UNL1        0.2704
     38 H          18.1650   75.2385   -9.4398 H       1  UNL1        0.2105
     39 H          18.1969   73.8044  -10.6750 H       1  UNL1        0.2105
     40 H          18.2119   75.2700   -6.0627 H       1  UNL1        0.2106
     41 O          18.9726   70.2228  -10.7112 O.3     1  UNL1       -0.3794
     42 C          19.7440   70.4346   -9.5431 C.3     1  UNL1        0.1693
     43 H          19.4508   69.6277  -11.3102 H       1  UNL1        0.2105
@<TRIPOS>UNITY_ATOM_ATTR
2 1
charge -1
26 1
charge -1
@<TRIPOS>BOND
     1    25    28    1
     2    25    24    1
     3    25    26    1
     4    25    27    2
     5     1     4    1
     6     1    24    1
     7     1     2    1
     8     1     3    2
     9     6    11    1
    10     6    12    1
    11    29    36    1
    12    29    37    1
    13     7     9    1
    14     7    13    1
    15     8    10    1
    16     8    14    1
    17    28    37    1
    18     4     5    1
    19    30    33    1
    20    30    38    1
    21    31    34    1
    22    31    39    1
    23    32    35    1
    24    32    40    1
    25    41    42    1
    26    41    43    1
    27    15    19    2
    28    16    22    2
    29    17    12    1
    30    17    19   ar
    31    17    20   ar
    32    18    19   ar
    33    18    22   ar
    34    18    23    1
    35     9    10    1
    36     9    11    1
    37    10    12    1
    38    11     5    1
    39    33    34    1
    40    33    35    1
    41    34    36    1
    42    35    37    1
    43    36    42    1
    44    20    21   ar
    45    21    22   ar
