@<TRIPOS>MOLECULE
UDP-glaA
 43 45 0 0 0
SMALL
GASTEIGER

@<TRIPOS>ATOM
      1 P          22.4695   71.6137   -2.9477 P.3     1  UNL1        0.2189
      2 O          22.1974   73.1816   -2.6561 O.3     1  UNL1       -0.4371
      3 O          23.8842   71.2746   -3.3163 O.2     1  UNL1       -0.5170
      4 O          21.3446   71.2196   -4.0408 O.3     1  UNL1       -0.3112
      5 C          20.4644   70.1472   -3.7506 C.3     1  UNL1        0.1811
      6 O          18.6962   71.4095   -4.7773 O.3     1  UNL1       -0.3308
      7 O          16.8830   70.1808   -2.7293 O.3     1  UNL1       -0.3794
      8 O          16.3706   68.6860   -4.9516 O.3     1  UNL1       -0.3779
      9 C          18.0031   69.6079   -3.4037 C.3     1  UNL1        0.1713
     10 C          17.6439   69.2873   -4.8393 C.3     1  UNL1        0.1895
     11 C          19.0556   70.6955   -3.5739 C.3     1  UNL1        0.1764
     12 C          17.7024   70.6574   -5.4930 C.3     1  UNL1        0.2383
     13 H          17.1711   70.4051   -1.8280 H       1  UNL1        0.2105
     14 H          16.3830   67.8726   -4.4183 H       1  UNL1        0.2106
     15 O          15.8996   70.1574   -7.6085 O.2     1  UNL1       -0.2464
     16 O          19.2472   70.4152  -10.7653 O.2     1  UNL1       -0.2670
     17 N          18.0754   70.5890   -6.8770 N.ar    1  UNL1       -0.2551
     18 N          17.5679   70.2856   -9.1790 N.ar    1  UNL1       -0.2743
     19 C          17.0930   70.3315   -7.8616 C.ar    1  UNL1        0.3323
     20 C          19.4026   70.7760   -7.2473 C.ar    1  UNL1        0.0869
     21 C          19.8394   70.7296   -8.5078 C.ar    1  UNL1        0.0795
     22 C          18.8777   70.4648   -9.5962 C.ar    1  UNL1        0.2626
     23 H          16.8793   70.1012   -9.9036 H       1  UNL1        0.1734
     24 O          21.9341   70.8965   -1.6008 O.3     1  UNL1       -0.2703
     25 P          21.2509   71.5120   -0.2716 P.3     1  UNL1        0.2208
     26 O          21.2888   70.2764    0.7714 O.3     1  UNL1       -0.4371
     27 O          19.8841   72.0936   -0.4944 O.2     1  UNL1       -0.5170
     28 O          22.3368   72.5609    0.2981 O.3     1  UNL1       -0.2858
     29 O          23.4030   71.7708    2.2573 O.3     1  UNL1       -0.3226
     30 O          24.8504   75.6581    1.9852 O.3     1  UNL1       -0.3794
     31 O          22.0526   75.0747    1.4038 O.3     1  UNL1       -0.3775
     32 O          25.3746   73.4265    3.5263 O.3     1  UNL1       -0.3792
     33 C          24.3793   74.3870    1.5460 C.3     1  UNL1        0.1718
     34 C          22.9428   74.1544    2.0263 C.3     1  UNL1        0.1968
     35 C          25.3006   73.2981    2.1026 C.3     1  UNL1        0.1723
     36 C          22.4882   72.7247    1.7075 C.3     1  UNL1        0.2706
     37 C          24.7326   71.9220    1.7622 C.3     1  UNL1        0.1830
     38 H          25.7614   75.7611    1.6614 H       1  UNL1        0.2105
     39 H          21.1572   74.8834    1.7303 H       1  UNL1        0.2106
     40 H          24.5372   73.1137    3.9086 H       1  UNL1        0.2106
     41 O          26.8410   71.1675    2.4616 O.co2   1  UNL1       -0.5466
     42 O          25.0718   69.7719    2.8072 O.co2   1  UNL1       -0.5466
     43 C          25.5309   70.8281    2.3972 C.2     1  UNL1        0.0799
@<TRIPOS>UNITY_ATOM_ATTR
41 1
charge -1
@<TRIPOS>BOND
     1     1     4    1
     2     1    24    1
     3     1     2    1
     4     1     3    2
     5    25    28    1
     6    25    24    1
     7    25    26    1
     8    25    27    2
     9     6    11    1
    10     6    12    1
    11    29    36    1
    12    29    37    1
    13     7     9    1
    14     7    13    1
    15     8    10    1
    16     8    14    1
    17     4     5    1
    18    28    36    1
    19    30    33    1
    20    30    38    1
    21    31    34    1
    22    31    39    1
    23    32    35    1
    24    32    40    1
    25    41    43   ar
    26    15    19    2
    27    42    43   ar
    28    16    22    2
    29    17    12    1
    30    17    19   ar
    31    17    20   ar
    32    18    19   ar
    33    18    22   ar
    34    18    23    1
    35     9    10    1
    36     9    11    1
    37    10    12    1
    38    11     5    1
    39    33    34    1
    40    33    35    1
    41    34    36    1
    42    35    37    1
    43    37    43    1
    44    20    21   ar
    45    21    22   ar
@<TRIPOS>MOLECULE
UDP-glaA
 43 45 0 0 0
SMALL
GASTEIGER

@<TRIPOS>ATOM
      1 P          23.0297   71.5078   -2.6660 P.3     1  UNL1        0.2189
      2 O          23.0953   73.0854   -2.3133 O.3     1  UNL1       -0.4371
      3 O          24.3165   70.9160   -3.1620 O.2     1  UNL1       -0.5170
      4 O          21.7669   71.3849   -3.6688 O.3     1  UNL1       -0.3112
      5 C          21.5889   72.3830   -4.6595 C.3     1  UNL1        0.1811
      6 O          20.5718   70.5349   -5.8102 O.3     1  UNL1       -0.3308
      7 O          20.9577   72.1281   -8.3210 O.3     1  UNL1       -0.3794
      8 O          18.3189   72.5279   -7.7616 O.3     1  UNL1       -0.3779
      9 C          20.6295   72.5787   -7.0069 C.3     1  UNL1        0.1713
     10 C          19.1877   72.2485   -6.6833 C.3     1  UNL1        0.1895
     11 C          21.3866   71.7110   -6.0101 C.3     1  UNL1        0.1764
     12 C          19.2669   70.7647   -6.3667 C.3     1  UNL1        0.2383
     13 H          21.8983   72.3255   -8.4686 H       1  UNL1        0.2105
     14 H          18.4083   73.4734   -7.9720 H       1  UNL1        0.2106
     15 O          16.6579   69.9239   -7.0458 O.2     1  UNL1       -0.2464
     16 O          15.5417   69.2108   -2.6317 O.2     1  UNL1       -0.2670
     17 N          18.2743   70.3533   -5.4155 N.ar    1  UNL1       -0.2551
     18 N          16.1036   69.5698   -4.8473 N.ar    1  UNL1       -0.2743
     19 C          16.9937   69.9500   -5.8604 C.ar    1  UNL1        0.3323
     20 C          18.5739   70.3524   -4.0576 C.ar    1  UNL1        0.0869
     21 C          17.7145   69.9866   -3.1040 C.ar    1  UNL1        0.0795
     22 C          16.3555   69.5526   -3.4842 C.ar    1  UNL1        0.2626
     23 H          15.1767   69.2766   -5.1438 H       1  UNL1        0.1734
     24 O          22.4710   70.8533   -1.2968 O.3     1  UNL1       -0.2703
     25 P          21.3271   71.3556   -0.2712 P.3     1  UNL1        0.2208
     26 O          21.3198   70.2072    0.8678 O.3     1  UNL1       -0.4371
     27 O          19.9911   71.6023   -0.9114 O.2     1  UNL1       -0.5170
     28 O          21.9671   72.6468    0.4548 O.3     1  UNL1       -0.2858
     29 O          23.1194   71.8076    2.3435 O.3     1  UNL1       -0.3226
     30 O          23.9823   75.8696    2.5308 O.3     1  UNL1       -0.3794
     31 O          21.3062   74.9546    1.8185 O.3     1  UNL1       -0.3775
     32 O          24.8143   73.5807    3.8342 O.3     1  UNL1       -0.3792
     33 C          23.7072   74.6002    1.9448 C.3     1  UNL1        0.1718
     34 C          22.3161   74.1099    2.3603 C.3     1  UNL1        0.1968
     35 C          24.7733   73.6015    2.4035 C.3     1  UNL1        0.1723
     36 C          22.0796   72.6736    1.8771 C.3     1  UNL1        0.2706
     37 C          24.4169   72.2039    1.9018 C.3     1  UNL1        0.1830
     38 H          24.8713   76.1389    2.2434 H       1  UNL1        0.2105
     39 H          20.4457   74.6005    2.0995 H       1  UNL1        0.2106
     40 H          24.0284   73.1093    4.1589 H       1  UNL1        0.2106
     41 O          26.5815   71.7164    2.6640 O.co2   1  UNL1       -0.5466
     42 O          25.0783   70.0026    2.6412 O.co2   1  UNL1       -0.5466
     43 C          25.3613   71.1738    2.4348 C.2     1  UNL1        0.0799
@<TRIPOS>UNITY_ATOM_ATTR
41 1
charge -1
@<TRIPOS>BOND
     1     1     4    1
     2     1    24    1
     3     1     2    1
     4     1     3    2
     5    25    28    1
     6    25    24    1
     7    25    26    1
     8    25    27    2
     9     6    11    1
    10     6    12    1
    11    29    36    1
    12    29    37    1
    13     7     9    1
    14     7    13    1
    15     8    10    1
    16     8    14    1
    17     4     5    1
    18    28    36    1
    19    30    33    1
    20    30    38    1
    21    31    34    1
    22    31    39    1
    23    32    35    1
    24    32    40    1
    25    41    43   ar
    26    15    19    2
    27    42    43   ar
    28    16    22    2
    29    17    12    1
    30    17    19   ar
    31    17    20   ar
    32    18    19   ar
    33    18    22   ar
    34    18    23    1
    35     9    10    1
    36     9    11    1
    37    10    12    1
    38    11     5    1
    39    33    34    1
    40    33    35    1
    41    34    36    1
    42    35    37    1
    43    37    43    1
    44    20    21   ar
    45    21    22   ar
@<TRIPOS>MOLECULE
UDP-glaA
 43 45 0 0 0
SMALL
GASTEIGER

@<TRIPOS>ATOM
      1 P          20.6363   71.7264   -2.4124 P.3     1  UNL1        0.2189
      2 O          20.3906   70.6596   -1.2212 O.3     1  UNL1       -0.4371
      3 O          20.1125   73.1069   -2.1438 O.2     1  UNL1       -0.5170
      4 O          20.0398   70.9910   -3.7234 O.3     1  UNL1       -0.3112
      5 C          19.2168   69.8508   -3.5450 C.3     1  UNL1        0.1811
      6 O          17.5947   71.0814   -4.8213 O.3     1  UNL1       -0.3308
      7 O          15.5136   69.5160   -3.3347 O.3     1  UNL1       -0.3794
      8 O          15.6244   68.2288   -5.7361 O.3     1  UNL1       -0.3779
      9 C          16.7995   69.1001   -3.7942 C.3     1  UNL1        0.1713
     10 C          16.7832   68.9063   -5.2958 C.3     1  UNL1        0.1895
     11 C          17.7574   70.2734   -3.6347 C.3     1  UNL1        0.1764
     12 C          16.8496   70.3380   -5.7997 C.3     1  UNL1        0.2383
     13 H          15.5825   69.6650   -2.3763 H       1  UNL1        0.2105
     14 H          15.6003   67.3671   -5.2855 H       1  UNL1        0.2106
     15 O          15.5174   70.5669   -8.2793 O.2     1  UNL1       -0.2464
     16 O          19.4916   70.7296  -10.6069 O.2     1  UNL1       -0.2670
     17 N          17.5111   70.4423   -7.0689 N.ar    1  UNL1       -0.2551
     18 N          17.4973   70.6472   -9.4367 N.ar    1  UNL1       -0.2743
     19 C          16.7494   70.5522   -8.2557 C.ar    1  UNL1        0.3323
     20 C          18.9002   70.4350   -7.1292 C.ar    1  UNL1        0.0869
     21 C          19.5986   70.5270   -8.2630 C.ar    1  UNL1        0.0795
     22 C          18.8791   70.6439   -9.5469 C.ar    1  UNL1        0.2626
     23 H          16.9706   70.7265  -10.3025 H       1  UNL1        0.1734
     24 O          22.2344   71.6462   -2.6466 O.3     1  UNL1       -0.2703
     25 P          23.3186   72.8019   -2.9652 P.3     1  UNL1        0.2208
     26 O          22.3999   74.0835   -3.3251 O.3     1  UNL1       -0.4371
     27 O          24.3153   72.4356   -4.0274 O.2     1  UNL1       -0.5170
     28 O          23.9712   73.1566   -1.5326 O.3     1  UNL1       -0.2858
     29 O          23.1872   72.5122    0.6051 O.3     1  UNL1       -0.3226
     30 O          25.1264   76.0949    1.4320 O.3     1  UNL1       -0.3794
     31 O          23.4891   75.8153   -0.9654 O.3     1  UNL1       -0.3775
     32 O          23.9818   74.0503    2.8946 O.3     1  UNL1       -0.3792
     33 C          24.8623   74.8495    0.7920 C.3     1  UNL1        0.1718
     34 C          23.4912   74.8802    0.1082 C.3     1  UNL1        0.1968
     35 C          24.8992   73.7356    1.8419 C.3     1  UNL1        0.1723
     36 C          23.1239   73.4937   -0.4350 C.3     1  UNL1        0.2706
     37 C          24.4791   72.4138    1.2027 C.3     1  UNL1        0.1830
     38 H          26.0007   76.0291    1.8523 H       1  UNL1        0.2105
     39 H          22.6067   75.7927   -1.3724 H       1  UNL1        0.2106
     40 H          23.0770   73.9086    2.5684 H       1  UNL1        0.2106
     41 O          25.4912   70.5539    2.2126 O.co2   1  UNL1       -0.5466
     42 O          23.4208   71.1437    2.9625 O.co2   1  UNL1       -0.5466
     43 C          24.3755   71.3225    2.2202 C.2     1  UNL1        0.0799
@<TRIPOS>UNITY_ATOM_ATTR
41 1
charge -1
@<TRIPOS>BOND
     1     1     4    1
     2     1    24    1
     3     1     2    1
     4     1     3    2
     5    25    28    1
     6    25    24    1
     7    25    26    1
     8    25    27    2
     9     6    11    1
    10     6    12    1
    11    29    36    1
    12    29    37    1
    13     7     9    1
    14     7    13    1
    15     8    10    1
    16     8    14    1
    17     4     5    1
    18    28    36    1
    19    30    33    1
    20    30    38    1
    21    31    34    1
    22    31    39    1
    23    32    35    1
    24    32    40    1
    25    41    43   ar
    26    15    19    2
    27    42    43   ar
    28    16    22    2
    29    17    12    1
    30    17    19   ar
    31    17    20   ar
    32    18    19   ar
    33    18    22   ar
    34    18    23    1
    35     9    10    1
    36     9    11    1
    37    10    12    1
    38    11     5    1
    39    33    34    1
    40    33    35    1
    41    34    36    1
    42    35    37    1
    43    37    43    1
    44    20    21   ar
    45    21    22   ar
@<TRIPOS>MOLECULE
UDP-glaA
 43 45 0 0 0
SMALL
GASTEIGER

@<TRIPOS>ATOM
      1 P          21.9909   71.4298   -2.4189 P.3     1  UNL1        0.2189
      2 O          22.0066   72.0755   -3.9022 O.3     1  UNL1       -0.4371
      3 O          23.3352   71.0198   -1.8928 O.2     1  UNL1       -0.5170
      4 O          20.8860   70.2530   -2.5178 O.3     1  UNL1       -0.3112
      5 C          20.1963   70.0726   -3.7430 C.3     1  UNL1        0.1811
      6 O          18.5171   71.3974   -4.8381 O.3     1  UNL1       -0.3308
      7 O          16.5819   70.2414   -2.8607 O.3     1  UNL1       -0.3794
      8 O          16.1003   68.7617   -5.0999 O.3     1  UNL1       -0.3779
      9 C          17.7051   69.6258   -3.4910 C.3     1  UNL1        0.1713
     10 C          17.3899   69.3156   -4.9391 C.3     1  UNL1        0.1895
     11 C          18.8031   70.6733   -3.6212 C.3     1  UNL1        0.1764
     12 C          17.5244   70.6812   -5.5911 C.3     1  UNL1        0.2383
     13 H          16.8432   70.4568   -1.9491 H       1  UNL1        0.2105
     14 H          16.0619   67.9496   -4.5660 H       1  UNL1        0.2106
     15 O          15.7796   70.3119   -7.7807 O.2     1  UNL1       -0.2464
     16 O          19.2615   70.3667  -10.7993 O.2     1  UNL1       -0.2670
     17 N          17.9476   70.5960   -6.9596 N.ar    1  UNL1       -0.2551
     18 N          17.5147   70.3389   -9.2824 N.ar    1  UNL1       -0.2743
     19 C          16.9911   70.4087   -7.9846 C.ar    1  UNL1        0.3323
     20 C          19.2980   70.6975   -7.2751 C.ar    1  UNL1        0.0869
     21 C          19.7814   70.6294   -8.5175 C.ar    1  UNL1        0.0795
     22 C          18.8491   70.4341   -9.6455 C.ar    1  UNL1        0.2626
     23 H          16.8453   70.2039  -10.0353 H       1  UNL1        0.1734
     24 O          21.2398   72.5602   -1.5396 O.3     1  UNL1       -0.2703
     25 P          20.5583   72.4856   -0.0759 P.3     1  UNL1        0.2208
     26 O          20.7201   70.9282    0.3298 O.3     1  UNL1       -0.4371
     27 O          19.1465   72.9956   -0.0270 O.2     1  UNL1       -0.5170
     28 O          21.5839   73.2687    0.8931 O.3     1  UNL1       -0.2858
     29 O          23.7537   73.0514    1.8119 O.3     1  UNL1       -0.3226
     30 O          21.4570   73.8538    5.1824 O.3     1  UNL1       -0.3794
     31 O          20.4678   72.0573    3.1088 O.3     1  UNL1       -0.3775
     32 O          24.1474   73.6437    4.5927 O.3     1  UNL1       -0.3792
     33 C          21.8737   73.9074    3.8209 C.3     1  UNL1        0.1718
     34 C          21.8143   72.5128    3.1885 C.3     1  UNL1        0.1968
     35 C          23.3047   74.4489    3.7618 C.3     1  UNL1        0.1723
     36 C          22.4216   72.5287    1.7802 C.3     1  UNL1        0.2706
     37 C          23.8204   74.3806    2.3261 C.3     1  UNL1        0.1830
     38 H          21.5128   74.7556    5.5420 H       1  UNL1        0.2105
     39 H          20.4797   71.1779    2.6948 H       1  UNL1        0.2106
     40 H          24.2985   72.7930    4.1470 H       1  UNL1        0.2106
     41 O          25.3826   76.0219    1.7180 O.co2   1  UNL1       -0.5466
     42 O          26.2012   74.0849    2.5982 O.co2   1  UNL1       -0.5466
     43 C          25.2597   74.7786    2.2421 C.2     1  UNL1        0.0799
@<TRIPOS>UNITY_ATOM_ATTR
41 1
charge -1
@<TRIPOS>BOND
     1     1     4    1
     2     1    24    1
     3     1     2    1
     4     1     3    2
     5    25    28    1
     6    25    24    1
     7    25    26    1
     8    25    27    2
     9     6    11    1
    10     6    12    1
    11    29    36    1
    12    29    37    1
    13     7     9    1
    14     7    13    1
    15     8    10    1
    16     8    14    1
    17     4     5    1
    18    28    36    1
    19    30    33    1
    20    30    38    1
    21    31    34    1
    22    31    39    1
    23    32    35    1
    24    32    40    1
    25    41    43   ar
    26    15    19    2
    27    42    43   ar
    28    16    22    2
    29    17    12    1
    30    17    19   ar
    31    17    20   ar
    32    18    19   ar
    33    18    22   ar
    34    18    23    1
    35     9    10    1
    36     9    11    1
    37    10    12    1
    38    11     5    1
    39    33    34    1
    40    33    35    1
    41    34    36    1
    42    35    37    1
    43    37    43    1
    44    20    21   ar
    45    21    22   ar
@<TRIPOS>MOLECULE
UDP-glaA
 43 45 0 0 0
SMALL
GASTEIGER

@<TRIPOS>ATOM
      1 P          22.0336   73.1315   -4.7550 P.3     1  UNL1        0.2189
      2 O          22.2139   74.7378   -4.8244 O.3     1  UNL1       -0.4371
      3 O          22.8622   72.3585   -5.7389 O.2     1  UNL1       -0.5170
      4 O          20.4344   72.9140   -4.8588 O.3     1  UNL1       -0.3112
      5 C          19.8162   71.9985   -3.9707 C.3     1  UNL1        0.1811
      6 O          17.9529   72.4645   -5.4148 O.3     1  UNL1       -0.3308
      7 O          16.2262   71.3227   -3.2454 O.3     1  UNL1       -0.3794
      8 O          16.3902   69.2613   -5.0229 O.3     1  UNL1       -0.3779
      9 C          17.5312   70.9241   -3.6649 C.3     1  UNL1        0.1713
     10 C          17.4560   70.1877   -4.9858 C.3     1  UNL1        0.1895
     11 C          18.3066   72.1791   -4.0434 C.3     1  UNL1        0.1764
     12 C          17.2734   71.3279   -5.9730 C.3     1  UNL1        0.2383
     13 H          16.3281   71.8230   -2.4178 H       1  UNL1        0.2105
     14 H          16.5243   68.6314   -4.2939 H       1  UNL1        0.2106
     15 O          15.7629   70.5889   -8.2419 O.2     1  UNL1       -0.2464
     16 O          19.5370   70.2200  -10.8609 O.2     1  UNL1       -0.2670
     17 N          17.8351   71.0337   -7.2604 N.ar    1  UNL1       -0.2551
     18 N          17.6433   70.4051   -9.5444 N.ar    1  UNL1       -0.2743
     19 C          16.9890   70.6713   -8.3344 C.ar    1  UNL1        0.3323
     20 C          19.2109   71.1053   -7.4490 C.ar    1  UNL1        0.0869
     21 C          19.8195   70.8490   -8.6091 C.ar    1  UNL1        0.0795
     22 C          19.0081   70.4627   -9.7805 C.ar    1  UNL1        0.2626
     23 H          17.0549   70.1421  -10.3304 H       1  UNL1        0.1734
     24 O          22.3454   72.7986   -3.2035 O.3     1  UNL1       -0.2703
     25 P          22.8780   71.4467   -2.4955 P.3     1  UNL1        0.2208
     26 O          24.3746   71.2831   -3.0868 O.3     1  UNL1       -0.4371
     27 O          21.9937   70.2512   -2.7068 O.2     1  UNL1       -0.5170
     28 O          23.0922   71.8524   -0.9484 O.3     1  UNL1       -0.2858
     29 O          24.3827   70.9667    0.8262 O.3     1  UNL1       -0.3226
     30 O          20.8582   72.0280    2.7577 O.3     1  UNL1       -0.3794
     31 O          20.7858   70.7782    0.1236 O.3     1  UNL1       -0.3775
     32 O          23.3701   71.1555    3.5053 O.3     1  UNL1       -0.3792
     33 C          21.9249   72.0995    1.8156 C.3     1  UNL1        0.1718
     34 C          21.9501   70.8419    0.9404 C.3     1  UNL1        0.1968
     35 C          23.2476   72.2361    2.5747 C.3     1  UNL1        0.1723
     36 C          23.1931   70.8301    0.0420 C.3     1  UNL1        0.2706
     37 C          24.4132   72.1713    1.5902 C.3     1  UNL1        0.1830
     38 H          20.8821   72.8413    3.2902 H       1  UNL1        0.2105
     39 H          20.8507   69.9733   -0.4176 H       1  UNL1        0.2106
     40 H          23.5730   70.3434    3.0107 H       1  UNL1        0.2106
     41 O          26.0877   73.4309    2.6453 O.co2   1  UNL1       -0.5466
     42 O          26.3955   71.1744    2.5423 O.co2   1  UNL1       -0.5466
     43 C          25.7297   72.1706    2.3001 C.2     1  UNL1        0.0799
@<TRIPOS>UNITY_ATOM_ATTR
41 1
charge -1
@<TRIPOS>BOND
     1     1     4    1
     2     1    24    1
     3     1     2    1
     4     1     3    2
     5    25    28    1
     6    25    24    1
     7    25    26    1
     8    25    27    2
     9     6    11    1
    10     6    12    1
    11    29    36    1
    12    29    37    1
    13     7     9    1
    14     7    13    1
    15     8    10    1
    16     8    14    1
    17     4     5    1
    18    28    36    1
    19    30    33    1
    20    30    38    1
    21    31    34    1
    22    31    39    1
    23    32    35    1
    24    32    40    1
    25    41    43   ar
    26    15    19    2
    27    42    43   ar
    28    16    22    2
    29    17    12    1
    30    17    19   ar
    31    17    20   ar
    32    18    19   ar
    33    18    22   ar
    34    18    23    1
    35     9    10    1
    36     9    11    1
    37    10    12    1
    38    11     5    1
    39    33    34    1
    40    33    35    1
    41    34    36    1
    42    35    37    1
    43    37    43    1
    44    20    21   ar
    45    21    22   ar
@<TRIPOS>MOLECULE
UDP-glaA
 43 45 0 0 0
SMALL
GASTEIGER

@<TRIPOS>ATOM
      1 P          23.4016   71.8342   -3.2880 P.3     1  UNL1        0.2189
      2 O          24.0930   72.9793   -4.1980 O.3     1  UNL1       -0.4371
      3 O          24.2624   70.6349   -3.0177 O.2     1  UNL1       -0.5170
      4 O          21.9978   71.5380   -4.0344 O.3     1  UNL1       -0.3112
      5 C          21.5583   72.4417   -5.0342 C.3     1  UNL1        0.1811
      6 O          20.5648   70.4864   -6.0161 O.3     1  UNL1       -0.3308
      7 O          20.7825   71.9222   -8.6395 O.3     1  UNL1       -0.3794
      8 O          18.1565   72.2648   -7.9893 O.3     1  UNL1       -0.3779
      9 C          20.4934   72.4471   -7.3439 C.3     1  UNL1        0.1713
     10 C          19.0803   72.0883   -6.9353 C.3     1  UNL1        0.1895
     11 C          21.3247   71.6748   -6.3280 C.3     1  UNL1        0.1764
     12 C          19.2296   70.6326   -6.5272 C.3     1  UNL1        0.2383
     13 H          21.7078   72.1426   -8.8416 H       1  UNL1        0.2105
     14 H          18.2007   73.1968   -8.2643 H       1  UNL1        0.2106
     15 O          16.5778   69.7987   -7.0256 O.2     1  UNL1       -0.2464
     16 O          15.7311   69.1917   -2.5363 O.2     1  UNL1       -0.2670
     17 N          18.2947   70.2504   -5.5077 N.ar    1  UNL1       -0.2551
     18 N          16.1578   69.4975   -4.7897 N.ar    1  UNL1       -0.2743
     19 C          16.9863   69.8480   -5.8639 C.ar    1  UNL1        0.3323
     20 C          18.6774   70.2767   -4.1712 C.ar    1  UNL1        0.0869
     21 C          17.8759   69.9390   -3.1586 C.ar    1  UNL1        0.0795
     22 C          16.4932   69.5081   -3.4447 C.ar    1  UNL1        0.2626
     23 H          15.2123   69.2056   -5.0221 H       1  UNL1        0.1734
     24 O          22.9457   72.6475   -1.9667 O.3     1  UNL1       -0.2703
     25 P          21.5496   72.6499   -1.1522 P.3     1  UNL1        0.2208
     26 O          21.1986   71.0771   -1.0130 O.3     1  UNL1       -0.4371
     27 O          20.4665   73.4729   -1.7887 O.2     1  UNL1       -0.5170
     28 O          21.9483   73.1131    0.3413 O.3     1  UNL1       -0.2858
     29 O          24.0762   73.7922    1.1225 O.3     1  UNL1       -0.3226
     30 O          22.3569   72.1964    4.5543 O.3     1  UNL1       -0.3794
     31 O          22.0022   70.8864    1.9728 O.3     1  UNL1       -0.3775
     32 O          24.6430   73.6159    3.9308 O.3     1  UNL1       -0.3792
     33 C          22.4314   72.8745    3.3033 C.3     1  UNL1        0.1718
     34 C          22.9429   71.9280    2.2120 C.3     1  UNL1        0.1968
     35 C          23.3762   74.0711    3.4440 C.3     1  UNL1        0.1723
     36 C          23.1895   72.6899    0.9040 C.3     1  UNL1        0.2706
     37 C          23.5807   74.7267    2.0800 C.3     1  UNL1        0.1830
     38 H          22.0318   72.8326    5.2140 H       1  UNL1        0.2105
     39 H          22.3639   70.3201    1.2705 H       1  UNL1        0.2106
     40 H          25.1036   73.1549    3.2094 H       1  UNL1        0.2106
     41 O          25.8297   75.3486    1.8372 O.co2   1  UNL1       -0.5466
     42 O          24.3588   76.9847    2.4344 O.co2   1  UNL1       -0.5466
     43 C          24.5980   75.8211    2.1459 C.2     1  UNL1        0.0799
@<TRIPOS>UNITY_ATOM_ATTR
41 1
charge -1
@<TRIPOS>BOND
     1     1     4    1
     2     1    24    1
     3     1     2    1
     4     1     3    2
     5    25    28    1
     6    25    24    1
     7    25    26    1
     8    25    27    2
     9     6    11    1
    10     6    12    1
    11    29    36    1
    12    29    37    1
    13     7     9    1
    14     7    13    1
    15     8    10    1
    16     8    14    1
    17     4     5    1
    18    28    36    1
    19    30    33    1
    20    30    38    1
    21    31    34    1
    22    31    39    1
    23    32    35    1
    24    32    40    1
    25    41    43   ar
    26    15    19    2
    27    42    43   ar
    28    16    22    2
    29    17    12    1
    30    17    19   ar
    31    17    20   ar
    32    18    19   ar
    33    18    22   ar
    34    18    23    1
    35     9    10    1
    36     9    11    1
    37    10    12    1
    38    11     5    1
    39    33    34    1
    40    33    35    1
    41    34    36    1
    42    35    37    1
    43    37    43    1
    44    20    21   ar
    45    21    22   ar
@<TRIPOS>MOLECULE
UDP-glaA
 43 45 0 0 0
SMALL
GASTEIGER

@<TRIPOS>ATOM
      1 P          23.2639   71.8712   -3.0859 P.3     1  UNL1        0.2189
      2 O          23.8054   73.2510   -3.7341 O.3     1  UNL1       -0.4371
      3 O          24.2779   70.7676   -3.0084 O.2     1  UNL1       -0.5170
      4 O          21.9279   71.5397   -3.9349 O.3     1  UNL1       -0.3112
      5 C          21.5223   72.4504   -4.9426 C.3     1  UNL1        0.1811
      6 O          20.5415   70.5059   -5.9582 O.3     1  UNL1       -0.3308
      7 O          20.8388   71.9500   -8.5693 O.3     1  UNL1       -0.3794
      8 O          18.1990   72.3086   -7.9876 O.3     1  UNL1       -0.3779
      9 C          20.5191   72.4720   -7.2797 C.3     1  UNL1        0.1713
     10 C          19.0932   72.1217   -6.9101 C.3     1  UNL1        0.1895
     11 C          21.3178   71.6901   -6.2452 C.3     1  UNL1        0.1764
     12 C          19.2214   70.6634   -6.5040 C.3     1  UNL1        0.2383
     13 H          21.7707   72.1645   -8.7459 H       1  UNL1        0.2105
     14 H          18.2569   73.2413   -8.2576 H       1  UNL1        0.2106
     15 O          16.5996   69.7859   -7.0795 O.2     1  UNL1       -0.2464
     16 O          15.6071   69.2356   -2.6129 O.2     1  UNL1       -0.2670
     17 N          18.2572   70.2840   -5.5112 N.ar    1  UNL1       -0.2551
     18 N          16.1070   69.5129   -4.8549 N.ar    1  UNL1       -0.2743
     19 C          16.9672   69.8584   -5.9055 C.ar    1  UNL1        0.3323
     20 C          18.5934   70.3358   -4.1630 C.ar    1  UNL1        0.0869
     21 C          17.7621   70.0026   -3.1731 C.ar    1  UNL1        0.0795
     22 C          16.3958   69.5485   -3.4995 C.ar    1  UNL1        0.2626
     23 H          15.1740   69.2046   -5.1148 H       1  UNL1        0.1734
     24 O          22.6769   72.3481   -1.6566 O.3     1  UNL1       -0.2703
     25 P          22.1370   71.4952   -0.3941 P.3     1  UNL1        0.2208
     26 O          23.4609   70.7262    0.1276 O.3     1  UNL1       -0.4371
     27 O          20.9796   70.5919   -0.7107 O.2     1  UNL1       -0.5170
     28 O          21.8303   72.5980    0.7433 O.3     1  UNL1       -0.2858
     29 O          21.5799   74.9448    0.5724 O.3     1  UNL1       -0.3226
     30 O          23.2910   74.5233    4.3372 O.3     1  UNL1       -0.3794
     31 O          24.2167   72.8991    2.0987 O.3     1  UNL1       -0.3775
     32 O          22.1717   76.5724    2.8613 O.3     1  UNL1       -0.3792
     33 C          22.4888   74.2024    3.2042 C.3     1  UNL1        0.1718
     34 C          23.3660   74.0320    1.9592 C.3     1  UNL1        0.1968
     35 C          21.4749   75.3278    2.9806 C.3     1  UNL1        0.1723
     36 C          22.5008   73.8570    0.7050 C.3     1  UNL1        0.2706
     37 C          20.7010   75.0722    1.6891 C.3     1  UNL1        0.1830
     38 H          22.6955   74.6242    5.0992 H       1  UNL1        0.2105
     39 H          24.7442   72.8263    1.2855 H       1  UNL1        0.2106
     40 H          22.6086   76.5999    1.9933 H       1  UNL1        0.2106
     41 O          20.4050   77.0968    0.5415 O.co2   1  UNL1       -0.5466
     42 O          18.6446   76.3346    1.7731 O.co2   1  UNL1       -0.5466
     43 C          19.7895   76.2122    1.3626 C.2     1  UNL1        0.0799
@<TRIPOS>UNITY_ATOM_ATTR
41 1
charge -1
@<TRIPOS>BOND
     1     1     4    1
     2     1    24    1
     3     1     2    1
     4     1     3    2
     5    25    28    1
     6    25    24    1
     7    25    26    1
     8    25    27    2
     9     6    11    1
    10     6    12    1
    11    29    36    1
    12    29    37    1
    13     7     9    1
    14     7    13    1
    15     8    10    1
    16     8    14    1
    17     4     5    1
    18    28    36    1
    19    30    33    1
    20    30    38    1
    21    31    34    1
    22    31    39    1
    23    32    35    1
    24    32    40    1
    25    41    43   ar
    26    15    19    2
    27    42    43   ar
    28    16    22    2
    29    17    12    1
    30    17    19   ar
    31    17    20   ar
    32    18    19   ar
    33    18    22   ar
    34    18    23    1
    35     9    10    1
    36     9    11    1
    37    10    12    1
    38    11     5    1
    39    33    34    1
    40    33    35    1
    41    34    36    1
    42    35    37    1
    43    37    43    1
    44    20    21   ar
    45    21    22   ar
@<TRIPOS>MOLECULE
UDP-glaA
 43 45 0 0 0
SMALL
GASTEIGER

@<TRIPOS>ATOM
      1 P          21.9327   72.5044   -5.8983 P.3     1  UNL1        0.2189
      2 O          21.3568   73.9578   -5.4817 O.3     1  UNL1       -0.4371
      3 O          23.0857   72.5320   -6.8586 O.2     1  UNL1       -0.5170
      4 O          20.6240   71.6942   -6.3944 O.3     1  UNL1       -0.3112
      5 C          20.0532   72.0311   -7.6473 C.3     1  UNL1        0.1811
      6 O          18.8919   69.9790   -7.1842 O.3     1  UNL1       -0.3308
      7 O          18.0937   69.9965  -10.0745 O.3     1  UNL1       -0.3794
      8 O          15.8473   70.9145   -8.8307 O.3     1  UNL1       -0.3779
      9 C          18.2476   71.0929   -9.1733 C.3     1  UNL1        0.1713
     10 C          17.0904   71.1374   -8.1979 C.3     1  UNL1        0.1895
     11 C          19.4250   70.7861   -8.2573 C.3     1  UNL1        0.1764
     12 C          17.4562   70.0308   -7.2233 C.3     1  UNL1        0.2383
     13 H          18.8752   69.9849  -10.6530 H       1  UNL1        0.2105
     14 H          15.7389   71.5998   -9.5125 H       1  UNL1        0.2106
     15 O          16.3141   68.0638   -5.5494 O.2     1  UNL1       -0.2464
     16 O          15.5898   71.1047   -2.1631 O.2     1  UNL1       -0.2670
     17 N          16.9616   70.2805   -5.8996 N.ar    1  UNL1       -0.2551
     18 N          15.9537   69.5795   -3.8645 N.ar    1  UNL1       -0.2743
     19 C          16.4058   69.2232   -5.1419 C.ar    1  UNL1        0.3323
     20 C          17.0295   71.5621   -5.3645 C.ar    1  UNL1        0.0869
     21 C          16.5946   71.8856   -4.1447 C.ar    1  UNL1        0.0795
     22 C          15.9996   70.8399   -3.2891 C.ar    1  UNL1        0.2626
     23 H          15.5498   68.8354   -3.3020 H       1  UNL1        0.1734
     24 O          22.2623   71.8222   -4.4696 O.3     1  UNL1       -0.2703
     25 P          23.4811   72.0630   -3.4356 P.3     1  UNL1        0.2208
     26 O          24.4225   73.1244   -4.2124 O.3     1  UNL1       -0.4371
     27 O          24.1845   70.8064   -3.0091 O.2     1  UNL1       -0.5170
     28 O          22.8288   72.9059   -2.2239 O.3     1  UNL1       -0.2858
     29 O          21.2816   71.9050   -0.7394 O.3     1  UNL1       -0.3226
     30 O          20.5433   75.9554   -0.1663 O.3     1  UNL1       -0.3794
     31 O          21.0236   74.9011   -2.8428 O.3     1  UNL1       -0.3775
     32 O          19.7642   73.5872    1.0231 O.3     1  UNL1       -0.3792
     33 C          21.2884   74.7699   -0.4305 C.3     1  UNL1        0.1718
     34 C          20.7732   74.0871   -1.7020 C.3     1  UNL1        0.1968
     35 C          21.1523   73.8227    0.7647 C.3     1  UNL1        0.1723
     36 C          21.4509   72.7255   -1.9001 C.3     1  UNL1        0.2706
     37 C          21.8252   72.4902    0.4428 C.3     1  UNL1        0.1830
     38 H          20.9013   76.3519    0.6462 H       1  UNL1        0.2105
     39 H          20.6900   74.4250   -3.6219 H       1  UNL1        0.2106
     40 H          19.4175   72.9965    0.3331 H       1  UNL1        0.2106
     41 O          21.5722   70.2321    1.0266 O.co2   1  UNL1       -0.5466
     42 O          21.4751   71.7586    2.7170 O.co2   1  UNL1       -0.5466
     43 C          21.6051   71.4888    1.5317 C.2     1  UNL1        0.0799
@<TRIPOS>UNITY_ATOM_ATTR
41 1
charge -1
@<TRIPOS>BOND
     1     1     4    1
     2     1    24    1
     3     1     2    1
     4     1     3    2
     5    25    28    1
     6    25    24    1
     7    25    26    1
     8    25    27    2
     9     6    11    1
    10     6    12    1
    11    29    36    1
    12    29    37    1
    13     7     9    1
    14     7    13    1
    15     8    10    1
    16     8    14    1
    17     4     5    1
    18    28    36    1
    19    30    33    1
    20    30    38    1
    21    31    34    1
    22    31    39    1
    23    32    35    1
    24    32    40    1
    25    41    43   ar
    26    15    19    2
    27    42    43   ar
    28    16    22    2
    29    17    12    1
    30    17    19   ar
    31    17    20   ar
    32    18    19   ar
    33    18    22   ar
    34    18    23    1
    35     9    10    1
    36     9    11    1
    37    10    12    1
    38    11     5    1
    39    33    34    1
    40    33    35    1
    41    34    36    1
    42    35    37    1
    43    37    43    1
    44    20    21   ar
    45    21    22   ar
@<TRIPOS>MOLECULE
UDP-glaA
 43 45 0 0 0
SMALL
GASTEIGER

@<TRIPOS>ATOM
      1 P          23.4777   73.5776   -4.2003 P.3     1  UNL1        0.2189
      2 O          22.7790   75.0235   -4.3971 O.3     1  UNL1       -0.4371
      3 O          24.9705   73.6111   -4.0508 O.2     1  UNL1       -0.5170
      4 O          22.9146   72.7011   -5.4374 O.3     1  UNL1       -0.3112
      5 C          21.5757   72.2385   -5.3858 C.3     1  UNL1        0.1811
      6 O          20.4704   70.3192   -6.3179 O.3     1  UNL1       -0.3308
      7 O          20.6496   71.7310   -8.9572 O.3     1  UNL1       -0.3794
      8 O          18.0646   72.1815   -8.2151 O.3     1  UNL1       -0.3779
      9 C          20.4287   72.2740   -7.6556 C.3     1  UNL1        0.1713
     10 C          19.0183   71.9740   -7.1939 C.3     1  UNL1        0.1895
     11 C          21.2651   71.4746   -6.6651 C.3     1  UNL1        0.1764
     12 C          19.1244   70.5157   -6.7815 C.3     1  UNL1        0.2383
     13 H          21.5749   71.9132   -9.1940 H       1  UNL1        0.2105
     14 H          18.1357   73.1095   -8.4978 H       1  UNL1        0.2106
     15 O          16.4274   69.7786   -7.1788 O.2     1  UNL1       -0.2464
     16 O          15.7186   69.2373   -2.6574 O.2     1  UNL1       -0.2670
     17 N          18.2127   70.1766   -5.7265 N.ar    1  UNL1       -0.2551
     18 N          16.0760   69.5100   -4.9271 N.ar    1  UNL1       -0.2743
     19 C          16.8784   69.8211   -6.0328 C.ar    1  UNL1        0.3323
     20 C          18.6434   70.1983   -4.4045 C.ar    1  UNL1        0.0869
     21 C          17.8664   69.8986   -3.3614 C.ar    1  UNL1        0.0795
     22 C          16.4592   69.5180   -3.5948 C.ar    1  UNL1        0.2626
     23 H          15.1127   69.2522   -5.1234 H       1  UNL1        0.1734
     24 O          22.6872   72.9631   -2.9304 O.3     1  UNL1       -0.2703
     25 P          22.8142   71.5293   -2.1950 P.3     1  UNL1        0.2208
     26 O          24.1478   70.8921   -2.8520 O.3     1  UNL1       -0.4371
     27 O          21.5911   70.6657   -2.3138 O.2     1  UNL1       -0.5170
     28 O          23.2354   71.8836   -0.6781 O.3     1  UNL1       -0.2858
     29 O          24.5544   70.9522    1.0516 O.3     1  UNL1       -0.3226
     30 O          21.0666   71.9731    3.0696 O.3     1  UNL1       -0.3794
     31 O          20.9453   70.7882    0.4074 O.3     1  UNL1       -0.3775
     32 O          23.5890   71.0775    3.7518 O.3     1  UNL1       -0.3792
     33 C          22.1169   72.0654    2.1111 C.3     1  UNL1        0.1718
     34 C          22.1238   70.8295    1.2051 C.3     1  UNL1        0.1968
     35 C          23.4529   72.1808    2.8501 C.3     1  UNL1        0.1723
     36 C          23.3510   70.8372    0.2852 C.3     1  UNL1        0.2706
     37 C          24.6011   72.1377    1.8441 C.3     1  UNL1        0.1830
     38 H          21.1017   72.7731    3.6213 H       1  UNL1        0.2105
     39 H          20.9989   69.9967   -0.1543 H       1  UNL1        0.2106
     40 H          23.7812   70.2773    3.2341 H       1  UNL1        0.2106
     41 O          26.4429   70.8632    2.5423 O.co2   1  UNL1       -0.5466
     42 O          26.4845   73.0930    3.0146 O.co2   1  UNL1       -0.5466
     43 C          25.9297   72.1170    2.5308 C.2     1  UNL1        0.0799
@<TRIPOS>UNITY_ATOM_ATTR
41 1
charge -1
@<TRIPOS>BOND
     1     1     4    1
     2     1    24    1
     3     1     2    1
     4     1     3    2
     5    25    28    1
     6    25    24    1
     7    25    26    1
     8    25    27    2
     9     6    11    1
    10     6    12    1
    11    29    36    1
    12    29    37    1
    13     7     9    1
    14     7    13    1
    15     8    10    1
    16     8    14    1
    17     4     5    1
    18    28    36    1
    19    30    33    1
    20    30    38    1
    21    31    34    1
    22    31    39    1
    23    32    35    1
    24    32    40    1
    25    41    43   ar
    26    15    19    2
    27    42    43   ar
    28    16    22    2
    29    17    12    1
    30    17    19   ar
    31    17    20   ar
    32    18    19   ar
    33    18    22   ar
    34    18    23    1
    35     9    10    1
    36     9    11    1
    37    10    12    1
    38    11     5    1
    39    33    34    1
    40    33    35    1
    41    34    36    1
    42    35    37    1
    43    37    43    1
    44    20    21   ar
    45    21    22   ar
@<TRIPOS>MOLECULE
UDP-glaA
 43 45 0 0 0
SMALL
GASTEIGER

@<TRIPOS>ATOM
      1 P          23.3960   71.9451   -3.2644 P.3     1  UNL1        0.2189
      2 O          23.8477   73.0314   -4.3750 O.3     1  UNL1       -0.4371
      3 O          24.3670   70.8219   -3.0460 O.2     1  UNL1       -0.5170
      4 O          21.9093   71.5089   -3.7281 O.3     1  UNL1       -0.3112
      5 C          21.1523   72.4131   -4.5145 C.3     1  UNL1        0.1811
      6 O          18.8564   72.5016   -5.2183 O.3     1  UNL1       -0.3308
      7 O          18.1874   71.3090   -2.5497 O.3     1  UNL1       -0.3794
      8 O          18.0486   69.1551   -4.2161 O.3     1  UNL1       -0.3779
      9 C          19.3124   71.0619   -3.3929 C.3     1  UNL1        0.1713
     10 C          18.9022   70.2195   -4.5823 C.3     1  UNL1        0.1895
     11 C          19.7022   72.3777   -4.0536 C.3     1  UNL1        0.1764
     12 C          18.2133   71.2414   -5.4705 C.3     1  UNL1        0.2383
     13 H          18.4890   71.8829   -1.8249 H       1  UNL1        0.2105
     14 H          18.5234   68.6097   -3.5655 H       1  UNL1        0.2106
     15 O          16.0337   71.0289   -7.2538 O.2     1  UNL1       -0.2464
     16 O          18.7982   70.0233  -10.8013 O.2     1  UNL1       -0.2670
     17 N          18.3345   70.9259   -6.8652 N.ar    1  UNL1       -0.2551
     18 N          17.4117   70.5278   -9.0190 N.ar    1  UNL1       -0.2743
     19 C          17.1771   70.8424   -7.6740 C.ar    1  UNL1        0.3323
     20 C          19.5904   70.7027   -7.4187 C.ar    1  UNL1        0.0869
     21 C          19.7976   70.4041   -8.7031 C.ar    1  UNL1        0.0795
     22 C          18.6417   70.2969   -9.6152 C.ar    1  UNL1        0.2626
     23 H          16.5940   70.4619   -9.6191 H       1  UNL1        0.1734
     24 O          23.1162   72.8570   -1.9586 O.3     1  UNL1       -0.2703
     25 P          23.3180   74.4411   -1.7085 P.3     1  UNL1        0.2208
     26 O          22.2359   75.1148   -2.7040 O.3     1  UNL1       -0.4371
     27 O          24.7270   74.9215   -1.9077 O.2     1  UNL1       -0.5170
     28 O          22.7284   74.6999   -0.2289 O.3     1  UNL1       -0.2858
     29 O          21.6806   72.6434    0.2928 O.3     1  UNL1       -0.3226
     30 O          21.3843   74.7084    3.8882 O.3     1  UNL1       -0.3794
     31 O          20.9316   76.0761    1.3524 O.3     1  UNL1       -0.3775
     32 O          20.8955   72.1366    3.0067 O.3     1  UNL1       -0.3792
     33 C          21.9412   74.2842    2.6471 C.3     1  UNL1        0.1718
     34 C          21.0125   74.6612    1.4880 C.3     1  UNL1        0.1968
     35 C          22.1403   72.7666    2.6866 C.3     1  UNL1        0.1723
     36 C          21.5169   74.0601    0.1702 C.3     1  UNL1        0.2706
     37 C          22.6025   72.2738    1.3170 C.3     1  UNL1        0.1830
     38 H          22.0028   74.4474    4.5917 H       1  UNL1        0.2105
     39 H          20.3424   76.2658    0.6029 H       1  UNL1        0.2106
     40 H          20.3160   72.1840    2.2275 H       1  UNL1        0.2106
     41 O          21.4672   70.2416    1.0259 O.co2   1  UNL1       -0.5466
     42 O          23.7079   70.1302    1.4307 O.co2   1  UNL1       -0.5466
     43 C          22.6854   70.7812    1.2719 C.2     1  UNL1        0.0799
@<TRIPOS>UNITY_ATOM_ATTR
41 1
charge -1
@<TRIPOS>BOND
     1     1     4    1
     2     1    24    1
     3     1     2    1
     4     1     3    2
     5    25    28    1
     6    25    24    1
     7    25    26    1
     8    25    27    2
     9     6    11    1
    10     6    12    1
    11    29    36    1
    12    29    37    1
    13     7     9    1
    14     7    13    1
    15     8    10    1
    16     8    14    1
    17     4     5    1
    18    28    36    1
    19    30    33    1
    20    30    38    1
    21    31    34    1
    22    31    39    1
    23    32    35    1
    24    32    40    1
    25    41    43   ar
    26    15    19    2
    27    42    43   ar
    28    16    22    2
    29    17    12    1
    30    17    19   ar
    31    17    20   ar
    32    18    19   ar
    33    18    22   ar
    34    18    23    1
    35     9    10    1
    36     9    11    1
    37    10    12    1
    38    11     5    1
    39    33    34    1
    40    33    35    1
    41    34    36    1
    42    35    37    1
    43    37    43    1
    44    20    21   ar
    45    21    22   ar
@<TRIPOS>MOLECULE
UDP-glaA
 43 45 0 0 0
SMALL
GASTEIGER

@<TRIPOS>ATOM
      1 P          22.3448   73.6200   -4.1970 P.3     1  UNL1        0.2189
      2 O          22.4105   75.2304   -4.0561 O.3     1  UNL1       -0.4371
      3 O          23.1512   73.0502   -5.3271 O.2     1  UNL1       -0.5170
      4 O          20.7607   73.2960   -4.2305 O.3     1  UNL1       -0.3112
      5 C          20.3368   71.9633   -3.9992 C.3     1  UNL1        0.1811
      6 O          18.2313   72.2034   -5.1321 O.3     1  UNL1       -0.3308
      7 O          17.0153   70.8088   -2.7724 O.3     1  UNL1       -0.3794
      8 O          17.1685   68.8163   -4.6278 O.3     1  UNL1       -0.3779
      9 C          18.2812   70.5925   -3.3957 C.3     1  UNL1        0.1713
     10 C          18.1004   69.8743   -4.7163 C.3     1  UNL1        0.1895
     11 C          18.8232   71.9447   -3.8399 C.3     1  UNL1        0.1764
     12 C          17.6255   70.9964   -5.6236 C.3     1  UNL1        0.2383
     13 H          17.1773   71.3047   -1.9518 H       1  UNL1        0.2105
     14 H          17.4915   68.1978   -3.9500 H       1  UNL1        0.2106
     15 O          15.8546   70.2846   -7.7051 O.2     1  UNL1       -0.2464
     16 O          19.2430   70.2667  -10.8288 O.2     1  UNL1       -0.2670
     17 N          18.0176   70.7999   -6.9900 N.ar    1  UNL1       -0.2551
     18 N          17.5431   70.2757   -9.2591 N.ar    1  UNL1       -0.2743
     19 C          17.0502   70.4428   -7.9582 C.ar    1  UNL1        0.3323
     20 C          19.3485   70.9607   -7.3592 C.ar    1  UNL1        0.0869
     21 C          19.8026   70.7982   -8.6038 C.ar    1  UNL1        0.0795
     22 C          18.8574   70.4242   -9.6745 C.ar    1  UNL1        0.2626
     23 H          16.8656   70.0183   -9.9717 H       1  UNL1        0.1734
     24 O          22.7889   73.1094   -2.7283 O.3     1  UNL1       -0.2703
     25 P          22.1454   73.3833   -1.2711 P.3     1  UNL1        0.2208
     26 O          21.8325   71.8959   -0.7181 O.3     1  UNL1       -0.4371
     27 O          20.9575   74.3022   -1.2852 O.2     1  UNL1       -0.5170
     28 O          23.3794   73.9027   -0.3702 O.3     1  UNL1       -0.2858
     29 O          22.3243   74.1475    1.7337 O.3     1  UNL1       -0.3226
     30 O          26.3390   74.5915    2.7157 O.3     1  UNL1       -0.3794
     31 O          25.2626   75.8092    0.2941 O.3     1  UNL1       -0.3775
     32 O          23.9547   74.3417    4.0879 O.3     1  UNL1       -0.3792
     33 C          25.1907   74.1057    2.0260 C.3     1  UNL1        0.1718
     34 C          24.4576   75.2580    1.3309 C.3     1  UNL1        0.1968
     35 C          24.2599   73.4240    3.0326 C.3     1  UNL1        0.1723
     36 C          23.1311   74.7749    0.7315 C.3     1  UNL1        0.2706
     37 C          22.9598   73.0227    2.3392 C.3     1  UNL1        0.1830
     38 H          26.7692   73.8304    3.1415 H       1  UNL1        0.2105
     39 H          24.7549   76.5263   -0.1218 H       1  UNL1        0.2106
     40 H          23.3335   75.0078    3.7480 H       1  UNL1        0.2106
     41 O          22.5572   72.2250    4.5084 O.co2   1  UNL1       -0.5466
     42 O          20.7871   72.2665    3.0724 O.co2   1  UNL1       -0.5466
     43 C          21.9684   72.4696    3.3130 C.2     1  UNL1        0.0799
@<TRIPOS>UNITY_ATOM_ATTR
41 1
charge -1
@<TRIPOS>BOND
     1     1     4    1
     2     1    24    1
     3     1     2    1
     4     1     3    2
     5    25    28    1
     6    25    24    1
     7    25    26    1
     8    25    27    2
     9     6    11    1
    10     6    12    1
    11    29    36    1
    12    29    37    1
    13     7     9    1
    14     7    13    1
    15     8    10    1
    16     8    14    1
    17     4     5    1
    18    28    36    1
    19    30    33    1
    20    30    38    1
    21    31    34    1
    22    31    39    1
    23    32    35    1
    24    32    40    1
    25    41    43   ar
    26    15    19    2
    27    42    43   ar
    28    16    22    2
    29    17    12    1
    30    17    19   ar
    31    17    20   ar
    32    18    19   ar
    33    18    22   ar
    34    18    23    1
    35     9    10    1
    36     9    11    1
    37    10    12    1
    38    11     5    1
    39    33    34    1
    40    33    35    1
    41    34    36    1
    42    35    37    1
    43    37    43    1
    44    20    21   ar
    45    21    22   ar
@<TRIPOS>MOLECULE
UDP-glaA
 43 45 0 0 0
SMALL
GASTEIGER

@<TRIPOS>ATOM
      1 P          22.4054   71.4628   -2.8339 P.3     1  UNL1        0.2189
      2 O          22.6108   73.0649   -2.9257 O.3     1  UNL1       -0.4371
      3 O          23.6683   70.6567   -2.9204 O.2     1  UNL1       -0.5170
      4 O          21.2915   71.1473   -3.9631 O.3     1  UNL1       -0.3112
      5 C          20.3264   70.1428   -3.7006 C.3     1  UNL1        0.1811
      6 O          18.6718   71.5159   -4.7737 O.3     1  UNL1       -0.3308
      7 O          16.7410   70.4516   -2.7413 O.3     1  UNL1       -0.3794
      8 O          16.1567   68.9668   -4.9526 O.3     1  UNL1       -0.3779
      9 C          17.8270   69.7892   -3.3890 C.3     1  UNL1        0.1713
     10 C          17.4686   69.4753   -4.8263 C.3     1  UNL1        0.1895
     11 C          18.9587   70.7948   -3.5551 C.3     1  UNL1        0.1764
     12 C          17.6375   70.8282   -5.4965 C.3     1  UNL1        0.2383
     13 H          17.0301   70.6670   -1.8382 H       1  UNL1        0.2105
     14 H          16.1010   68.1623   -4.4087 H       1  UNL1        0.2106
     15 O          15.8643   70.2301   -7.6116 O.2     1  UNL1       -0.2464
     16 O          19.2442   70.4101  -10.7393 O.2     1  UNL1       -0.2670
     17 N          18.0268   70.7132   -6.8730 N.ar    1  UNL1       -0.2551
     18 N          17.5486   70.3196   -9.1676 N.ar    1  UNL1       -0.2743
     19 C          17.0585   70.4085   -7.8580 C.ar    1  UNL1        0.3323
     20 C          19.3559   70.9016   -7.2354 C.ar    1  UNL1        0.0869
     21 C          19.8074   70.8140   -8.4886 C.ar    1  UNL1        0.0795
     22 C          18.8610   70.4984   -9.5768 C.ar    1  UNL1        0.2626
     23 H          16.8703   70.1008   -9.8923 H       1  UNL1        0.1734
     24 O          21.5839   71.2814   -1.4527 O.3     1  UNL1       -0.2703
     25 P          22.0815   71.2844    0.0851 P.3     1  UNL1        0.2208
     26 O          23.6589   71.6209   -0.0360 O.3     1  UNL1       -0.4371
     27 O          21.7731   70.0201    0.8348 O.2     1  UNL1       -0.5170
     28 O          21.4280   72.6144    0.7238 O.3     1  UNL1       -0.2858
     29 O          19.8384   73.7000   -0.6526 O.3     1  UNL1       -0.3226
     30 O          20.4285   76.4946    2.3676 O.3     1  UNL1       -0.3794
     31 O          22.6831   75.0151    1.2568 O.3     1  UNL1       -0.3775
     32 O          18.7019   76.1820    0.2343 O.3     1  UNL1       -0.3792
     33 C          20.3123   75.2145    1.7527 C.3     1  UNL1        0.1718
     34 C          21.3852   75.0411    0.6724 C.3     1  UNL1        0.1968
     35 C          18.9184   75.0881    1.1317 C.3     1  UNL1        0.1723
     36 C          21.1626   73.7412   -0.1106 C.3     1  UNL1        0.2706
     37 C          18.8230   73.7819    0.3463 C.3     1  UNL1        0.1830
     38 H          19.7301   76.5611    3.0410 H       1  UNL1        0.2105
     39 H          23.3262   74.8946    0.5380 H       1  UNL1        0.2106
     40 H          19.2295   76.0320   -0.5684 H       1  UNL1        0.2106
     41 O          16.5405   74.3212    0.2905 O.co2   1  UNL1       -0.5466
     42 O          17.3601   73.0942   -1.4472 O.co2   1  UNL1       -0.5466
     43 C          17.5224   73.6767   -0.3848 C.2     1  UNL1        0.0799
@<TRIPOS>UNITY_ATOM_ATTR
41 1
charge -1
@<TRIPOS>BOND
     1     1     4    1
     2     1    24    1
     3     1     2    1
     4     1     3    2
     5    25    28    1
     6    25    24    1
     7    25    26    1
     8    25    27    2
     9     6    11    1
    10     6    12    1
    11    29    36    1
    12    29    37    1
    13     7     9    1
    14     7    13    1
    15     8    10    1
    16     8    14    1
    17     4     5    1
    18    28    36    1
    19    30    33    1
    20    30    38    1
    21    31    34    1
    22    31    39    1
    23    32    35    1
    24    32    40    1
    25    41    43   ar
    26    15    19    2
    27    42    43   ar
    28    16    22    2
    29    17    12    1
    30    17    19   ar
    31    17    20   ar
    32    18    19   ar
    33    18    22   ar
    34    18    23    1
    35     9    10    1
    36     9    11    1
    37    10    12    1
    38    11     5    1
    39    33    34    1
    40    33    35    1
    41    34    36    1
    42    35    37    1
    43    37    43    1
    44    20    21   ar
    45    21    22   ar
@<TRIPOS>MOLECULE
UDP-glaA
 43 45 0 0 0
SMALL
GASTEIGER

@<TRIPOS>ATOM
      1 P          19.6041   73.6745   -1.6037 P.3     1  UNL1        0.2189
      2 O          18.5486   73.9796   -0.4162 O.3     1  UNL1       -0.4371
      3 O          20.7481   74.6413   -1.6976 O.2     1  UNL1       -0.5170
      4 O          18.6793   73.5495   -2.9246 O.3     1  UNL1       -0.3112
      5 C          18.6842   72.3268   -3.6418 C.3     1  UNL1        0.1811
      6 O          16.8649   71.9494   -5.1656 O.3     1  UNL1       -0.3308
      7 O          15.7319   70.1301   -3.0685 O.3     1  UNL1       -0.3794
      8 O          16.8563   68.3796   -4.8311 O.3     1  UNL1       -0.3779
      9 C          17.0946   70.3526   -3.4307 C.3     1  UNL1        0.1713
     10 C          17.4036   69.6794   -4.7513 C.3     1  UNL1        0.1895
     11 C          17.2533   71.8266   -3.7795 C.3     1  UNL1        0.1764
     12 C          16.7774   70.6390   -5.7489 C.3     1  UNL1        0.2383
     13 H          15.5703   70.6110   -2.2389 H       1  UNL1        0.2105
     14 H          17.2248   67.8612   -4.0952 H       1  UNL1        0.2106
     15 O          15.4935   70.5226   -8.2616 O.2     1  UNL1       -0.2464
     16 O          19.5067   70.6561  -10.5232 O.2     1  UNL1       -0.2670
     17 N          17.4620   70.6424   -7.0102 N.ar    1  UNL1       -0.2551
     18 N          17.4927   70.5886   -9.3861 N.ar    1  UNL1       -0.2743
     19 C          16.7236   70.5800   -8.2150 C.ar    1  UNL1        0.3323
     20 C          18.8505   70.7069   -7.0450 C.ar    1  UNL1        0.0869
     21 C          19.5693   70.7148   -8.1697 C.ar    1  UNL1        0.0795
     22 C          18.8750   70.6513   -9.4711 C.ar    1  UNL1        0.2626
     23 H          16.9830   70.5439  -10.2643 H       1  UNL1        0.1734
     24 O          20.0382   72.1431   -1.3181 O.3     1  UNL1       -0.2703
     25 P          21.3511   71.5291   -0.6027 P.3     1  UNL1        0.2208
     26 O          22.2759   71.0764   -1.8500 O.3     1  UNL1       -0.4371
     27 O          21.0601   70.4338    0.3829 O.2     1  UNL1       -0.5170
     28 O          22.1098   72.8071    0.0257 O.3     1  UNL1       -0.2858
     29 O          23.1834   71.9828    1.9667 O.3     1  UNL1       -0.3226
     30 O          24.4968   75.9251    1.8526 O.3     1  UNL1       -0.3794
     31 O          21.7270   75.2672    1.2190 O.3     1  UNL1       -0.3775
     32 O          25.0833   73.6577    3.3172 O.3     1  UNL1       -0.3792
     33 C          24.0747   74.6555    1.3622 C.3     1  UNL1        0.1718
     34 C          22.6425   74.3559    1.8175 C.3     1  UNL1        0.1968
     35 C          25.0279   73.5793    1.8890 C.3     1  UNL1        0.1723
     36 C          22.2414   72.9240    1.4418 C.3     1  UNL1        0.2706
     37 C          24.5118   72.1979    1.4924 C.3     1  UNL1        0.1830
     38 H          25.4069   76.0714    1.5430 H       1  UNL1        0.2105
     39 H          20.8357   75.0332    1.5283 H       1  UNL1        0.2106
     40 H          24.2536   73.3023    3.6784 H       1  UNL1        0.2106
     41 O          24.5933   70.0006    2.3104 O.co2   1  UNL1       -0.5466
     42 O          26.5318   71.1992    2.3596 O.co2   1  UNL1       -0.5466
     43 C          25.3414   71.1096    2.0960 C.2     1  UNL1        0.0799
@<TRIPOS>UNITY_ATOM_ATTR
41 1
charge -1
@<TRIPOS>BOND
     1     1     4    1
     2     1    24    1
     3     1     2    1
     4     1     3    2
     5    25    28    1
     6    25    24    1
     7    25    26    1
     8    25    27    2
     9     6    11    1
    10     6    12    1
    11    29    36    1
    12    29    37    1
    13     7     9    1
    14     7    13    1
    15     8    10    1
    16     8    14    1
    17     4     5    1
    18    28    36    1
    19    30    33    1
    20    30    38    1
    21    31    34    1
    22    31    39    1
    23    32    35    1
    24    32    40    1
    25    41    43   ar
    26    15    19    2
    27    42    43   ar
    28    16    22    2
    29    17    12    1
    30    17    19   ar
    31    17    20   ar
    32    18    19   ar
    33    18    22   ar
    34    18    23    1
    35     9    10    1
    36     9    11    1
    37    10    12    1
    38    11     5    1
    39    33    34    1
    40    33    35    1
    41    34    36    1
    42    35    37    1
    43    37    43    1
    44    20    21   ar
    45    21    22   ar
@<TRIPOS>MOLECULE
UDP-glaA
 43 45 0 0 0
SMALL
GASTEIGER

@<TRIPOS>ATOM
      1 P          21.9626   72.4343   -5.7916 P.3     1  UNL1        0.2189
      2 O          21.3391   73.8702   -5.3835 O.3     1  UNL1       -0.4371
      3 O          23.1495   72.4969   -6.7078 O.2     1  UNL1       -0.5170
      4 O          20.6917   71.6003   -6.3437 O.3     1  UNL1       -0.3112
      5 C          20.0922   72.0067   -7.5622 C.3     1  UNL1        0.1811
      6 O          18.8806   69.9691   -7.1693 O.3     1  UNL1       -0.3308
      7 O          18.0674   70.1165  -10.0518 O.3     1  UNL1       -0.3794
      8 O          15.8524   71.0443   -8.7599 O.3     1  UNL1       -0.3779
      9 C          18.2547   71.1737   -9.1109 C.3     1  UNL1        0.1713
     10 C          17.1043   71.2110   -8.1271 C.3     1  UNL1        0.1895
     11 C          19.4287   70.8022   -8.2146 C.3     1  UNL1        0.1764
     12 C          17.4466   70.0593   -7.1973 C.3     1  UNL1        0.2383
     13 H          18.8452   70.1067  -10.6353 H       1  UNL1        0.2105
     14 H          15.7582   71.7575   -9.4147 H       1  UNL1        0.2106
     15 O          16.2722   68.0579   -5.5877 O.2     1  UNL1       -0.2464
     16 O          15.6356   70.9886   -2.0885 O.2     1  UNL1       -0.2670
     17 N          16.9657   70.2713   -5.8619 N.ar    1  UNL1       -0.2551
     18 N          15.9555   69.5188   -3.8465 N.ar    1  UNL1       -0.2743
     19 C          16.3917   69.1995   -5.1391 C.ar    1  UNL1        0.3323
     20 C          17.0651   71.5309   -5.2813 C.ar    1  UNL1        0.0869
     21 C          16.6449   71.8192   -4.0475 C.ar    1  UNL1        0.0795
     22 C          16.0326   70.7561   -3.2262 C.ar    1  UNL1        0.2626
     23 H          15.5389   68.7637   -3.3086 H       1  UNL1        0.1734
     24 O          22.2541   71.7452   -4.3580 O.3     1  UNL1       -0.2703
     25 P          23.4473   71.9778   -3.2928 P.3     1  UNL1        0.2208
     26 O          24.2328   73.2596   -3.8896 O.3     1  UNL1       -0.4371
     27 O          24.3126   70.7717   -3.0640 O.2     1  UNL1       -0.5170
     28 O          22.7107   72.5307   -1.9678 O.3     1  UNL1       -0.2858
     29 O          22.7016   70.9592   -0.1987 O.3     1  UNL1       -0.3226
     30 O          20.2363   73.9580    1.2875 O.3     1  UNL1       -0.3794
     31 O          20.0582   73.1428   -1.5071 O.3     1  UNL1       -0.3775
     32 O          21.4028   71.6529    2.2651 O.3     1  UNL1       -0.3792
     33 C          21.3109   73.3651    0.5636 C.3     1  UNL1        0.1718
     34 C          20.7714   72.4162   -0.5120 C.3     1  UNL1        0.1968
     35 C          22.2019   72.5952    1.5423 C.3     1  UNL1        0.1723
     36 C          21.9166   71.6449   -1.1798 C.3     1  UNL1        0.2706
     37 C          23.2775   71.8358    0.7685 C.3     1  UNL1        0.1830
     38 H          20.6235   74.5471    1.9572 H       1  UNL1        0.2105
     39 H          19.7450   72.5036   -2.1691 H       1  UNL1        0.2106
     40 H          21.1772   70.9182    1.6697 H       1  UNL1        0.2106
     41 O          23.6905   71.1067    2.9597 O.co2   1  UNL1       -0.5466
     42 O          24.9938   70.2261    1.3096 O.co2   1  UNL1       -0.5466
     43 C          24.0915   70.9664    1.6732 C.2     1  UNL1        0.0799
@<TRIPOS>UNITY_ATOM_ATTR
41 1
charge -1
@<TRIPOS>BOND
     1     1     4    1
     2     1    24    1
     3     1     2    1
     4     1     3    2
     5    25    28    1
     6    25    24    1
     7    25    26    1
     8    25    27    2
     9     6    11    1
    10     6    12    1
    11    29    36    1
    12    29    37    1
    13     7     9    1
    14     7    13    1
    15     8    10    1
    16     8    14    1
    17     4     5    1
    18    28    36    1
    19    30    33    1
    20    30    38    1
    21    31    34    1
    22    31    39    1
    23    32    35    1
    24    32    40    1
    25    41    43   ar
    26    15    19    2
    27    42    43   ar
    28    16    22    2
    29    17    12    1
    30    17    19   ar
    31    17    20   ar
    32    18    19   ar
    33    18    22   ar
    34    18    23    1
    35     9    10    1
    36     9    11    1
    37    10    12    1
    38    11     5    1
    39    33    34    1
    40    33    35    1
    41    34    36    1
    42    35    37    1
    43    37    43    1
    44    20    21   ar
    45    21    22   ar
@<TRIPOS>MOLECULE
UDP-glaA
 43 45 0 0 0
SMALL
GASTEIGER

@<TRIPOS>ATOM
      1 P          22.3778   74.0041   -4.0644 P.3     1  UNL1        0.2189
      2 O          22.4219   75.5050   -3.4620 O.3     1  UNL1       -0.4371
      3 O          23.1209   73.8180   -5.3549 O.2     1  UNL1       -0.5170
      4 O          20.8012   73.6458   -4.1030 O.3     1  UNL1       -0.3112
      5 C          20.4170   72.2816   -4.1287 C.3     1  UNL1        0.1811
      6 O          18.2893   72.3696   -5.2420 O.3     1  UNL1       -0.3308
      7 O          17.1762   70.9942   -2.8211 O.3     1  UNL1       -0.3794
      8 O          17.4162   68.9499   -4.6097 O.3     1  UNL1       -0.3779
      9 C          18.4450   70.8245   -3.4528 C.3     1  UNL1        0.1713
     10 C          18.2887   70.0525   -4.7460 C.3     1  UNL1        0.1895
     11 C          18.9085   72.1876   -3.9494 C.3     1  UNL1        0.1764
     12 C          17.7440   71.1157   -5.6845 C.3     1  UNL1        0.2383
     13 H          17.3202   71.5260   -2.0198 H       1  UNL1        0.2105
     14 H          17.7794   68.3733   -3.9156 H       1  UNL1        0.2106
     15 O          15.9869   70.2578   -7.7222 O.2     1  UNL1       -0.2464
     16 O          19.3413   70.2935  -10.8821 O.2     1  UNL1       -0.2670
     17 N          18.1311   70.8934   -7.0484 N.ar    1  UNL1       -0.2551
     18 N          17.6586   70.2756   -9.2943 N.ar    1  UNL1       -0.2743
     19 C          17.1715   70.4618   -7.9938 C.ar    1  UNL1        0.3323
     20 C          19.4495   71.1026   -7.4376 C.ar    1  UNL1        0.0869
     21 C          19.8982   70.9210   -8.6816 C.ar    1  UNL1        0.0795
     22 C          18.9604   70.4703   -9.7291 C.ar    1  UNL1        0.2626
     23 H          16.9864   69.9649   -9.9906 H       1  UNL1        0.1734
     24 O          22.9246   73.1048   -2.8366 O.3     1  UNL1       -0.2703
     25 P          22.4075   72.9659   -1.3115 P.3     1  UNL1        0.2208
     26 O          22.2724   71.3668   -1.1097 O.3     1  UNL1       -0.4371
     27 O          21.1532   73.7365   -1.0138 O.2     1  UNL1       -0.5170
     28 O          23.6777   73.3855   -0.4092 O.3     1  UNL1       -0.2858
     29 O          22.7120   73.9557    1.6745 O.3     1  UNL1       -0.3226
     30 O          21.6171   69.9661    1.2695 O.3     1  UNL1       -0.3794
     31 O          24.2887   70.8540    0.5078 O.3     1  UNL1       -0.3775
     32 O          21.0187   72.0453    2.9867 O.3     1  UNL1       -0.3792
     33 C          21.9283   71.3000    0.8767 C.3     1  UNL1        0.1718
     34 C          23.3722   71.6458    1.2561 C.3     1  UNL1        0.1968
     35 C          20.9595   72.2599    1.5727 C.3     1  UNL1        0.1723
     36 C          23.6622   73.1289    0.9944 C.3     1  UNL1        0.2706
     37 C          21.3653   73.7022    1.2772 C.3     1  UNL1        0.1830
     38 H          20.6955   69.7921    1.0127 H       1  UNL1        0.2105
     39 H          25.1866   71.1140    0.7742 H       1  UNL1        0.2106
     40 H          21.8524   72.4172    3.3210 H       1  UNL1        0.2106
     41 O          19.2356   74.2604    2.0876 O.co2   1  UNL1       -0.5466
     42 O          20.9369   75.7025    2.5599 O.co2   1  UNL1       -0.5466
     43 C          20.5247   74.6748    2.0418 C.2     1  UNL1        0.0799
@<TRIPOS>UNITY_ATOM_ATTR
41 1
charge -1
@<TRIPOS>BOND
     1     1     4    1
     2     1    24    1
     3     1     2    1
     4     1     3    2
     5    25    28    1
     6    25    24    1
     7    25    26    1
     8    25    27    2
     9     6    11    1
    10     6    12    1
    11    29    36    1
    12    29    37    1
    13     7     9    1
    14     7    13    1
    15     8    10    1
    16     8    14    1
    17     4     5    1
    18    28    36    1
    19    30    33    1
    20    30    38    1
    21    31    34    1
    22    31    39    1
    23    32    35    1
    24    32    40    1
    25    41    43   ar
    26    15    19    2
    27    42    43   ar
    28    16    22    2
    29    17    12    1
    30    17    19   ar
    31    17    20   ar
    32    18    19   ar
    33    18    22   ar
    34    18    23    1
    35     9    10    1
    36     9    11    1
    37    10    12    1
    38    11     5    1
    39    33    34    1
    40    33    35    1
    41    34    36    1
    42    35    37    1
    43    37    43    1
    44    20    21   ar
    45    21    22   ar
@<TRIPOS>MOLECULE
UDP-glaA
 43 45 0 0 0
SMALL
GASTEIGER

@<TRIPOS>ATOM
      1 P          23.3586   72.3052   -3.5539 P.3     1  UNL1        0.2189
      2 O          24.1654   70.9952   -3.0533 O.3     1  UNL1       -0.4371
      3 O          24.0299   73.0821   -4.6484 O.2     1  UNL1       -0.5170
      4 O          23.0612   73.1240   -2.1913 O.3     1  UNL1       -0.3112
      5 C          22.1784   74.2317   -2.2456 C.3     1  UNL1        0.1811
      6 O          21.2530   72.7536   -0.5923 O.3     1  UNL1       -0.3308
      7 O          19.3835   74.9952    0.0946 O.3     1  UNL1       -0.3794
      8 O          21.2554   75.1540    2.0711 O.3     1  UNL1       -0.3779
      9 C          20.7527   75.0514   -0.3053 C.3     1  UNL1        0.1713
     10 C          21.6501   74.6066    0.8302 C.3     1  UNL1        0.1895
     11 C          20.9846   73.9594   -1.3414 C.3     1  UNL1        0.1764
     12 C          21.4947   73.0961    0.7823 C.3     1  UNL1        0.2383
     13 H          18.8462   75.2503   -0.6747 H       1  UNL1        0.2105
     14 H          21.2780   76.1226    1.9843 H       1  UNL1        0.2106
     15 O          21.6674   70.3018    1.1528 O.2     1  UNL1       -0.2464
     16 O          26.0585   70.5711    2.5256 O.2     1  UNL1       -0.2670
     17 N          22.6707   72.4094    1.2350 N.ar    1  UNL1       -0.2551
     18 N          23.8537   70.4378    1.8367 N.ar    1  UNL1       -0.2743
     19 C          22.6526   71.0034    1.3889 C.ar    1  UNL1        0.3323
     20 C          23.8259   73.1282    1.5217 C.ar    1  UNL1        0.0869
     21 C          24.9634   72.5742    1.9473 C.ar    1  UNL1        0.0795
     22 C          25.0281   71.1113    2.1350 C.ar    1  UNL1        0.2626
     23 H          23.8638   69.4283    1.9552 H       1  UNL1        0.1734
     24 O          21.9066   71.7094   -3.9438 O.3     1  UNL1       -0.2703
     25 P          20.8505   72.1520   -5.0846 P.3     1  UNL1        0.2208
     26 O          21.4304   71.4479   -6.4203 O.3     1  UNL1       -0.4371
     27 O          20.6557   73.6367   -5.2010 O.2     1  UNL1       -0.5170
     28 O          19.5065   71.3283   -4.7393 O.3     1  UNL1       -0.2858
     29 O          18.1294   71.6554   -6.6356 O.3     1  UNL1       -0.3226
     30 O          15.8951   68.9634   -4.3904 O.3     1  UNL1       -0.3794
     31 O          17.2942   71.1704   -3.0951 O.3     1  UNL1       -0.3775
     32 O          15.7661   70.0525   -6.9256 O.3     1  UNL1       -0.3792
     33 C          17.0510   69.5971   -4.9314 C.3     1  UNL1        0.1718
     34 C          17.1047   71.0673   -4.5023 C.3     1  UNL1        0.1968
     35 C          17.0006   69.4986   -6.4586 C.3     1  UNL1        0.1723
     36 C          18.2472   71.8002   -5.2164 C.3     1  UNL1        0.2706
     37 C          18.1557   70.2943   -7.0626 C.3     1  UNL1        0.1830
     38 H          15.9010   68.0380   -4.6890 H       1  UNL1        0.2105
     39 H          17.3313   72.1159   -2.8726 H       1  UNL1        0.2106
     40 H          15.8123   71.0204   -6.8467 H       1  UNL1        0.2106
     41 O          19.3090   70.4037   -9.1026 O.co2   1  UNL1       -0.5466
     42 O          17.0336   70.3036   -9.2005 O.co2   1  UNL1       -0.5466
     43 C          18.0716   70.3335   -8.5553 C.2     1  UNL1        0.0799
@<TRIPOS>UNITY_ATOM_ATTR
41 1
charge -1
@<TRIPOS>BOND
     1     1     4    1
     2     1    24    1
     3     1     2    1
     4     1     3    2
     5    25    28    1
     6    25    24    1
     7    25    26    1
     8    25    27    2
     9     6    11    1
    10     6    12    1
    11    29    36    1
    12    29    37    1
    13     7     9    1
    14     7    13    1
    15     8    10    1
    16     8    14    1
    17     4     5    1
    18    28    36    1
    19    30    33    1
    20    30    38    1
    21    31    34    1
    22    31    39    1
    23    32    35    1
    24    32    40    1
    25    41    43   ar
    26    15    19    2
    27    42    43   ar
    28    16    22    2
    29    17    12    1
    30    17    19   ar
    31    17    20   ar
    32    18    19   ar
    33    18    22   ar
    34    18    23    1
    35     9    10    1
    36     9    11    1
    37    10    12    1
    38    11     5    1
    39    33    34    1
    40    33    35    1
    41    34    36    1
    42    35    37    1
    43    37    43    1
    44    20    21   ar
    45    21    22   ar
@<TRIPOS>MOLECULE
UDP-glaA
 43 45 0 0 0
SMALL
GASTEIGER

@<TRIPOS>ATOM
      1 P          23.5703   72.2691   -3.5002 P.3     1  UNL1        0.2189
      2 O          23.9655   70.7179   -3.2659 O.3     1  UNL1       -0.4371
      3 O          24.7158   73.1653   -3.8701 O.2     1  UNL1       -0.5170
      4 O          22.7666   72.6738   -2.1564 O.3     1  UNL1       -0.3112
      5 C          23.4873   72.7719   -0.9397 C.3     1  UNL1        0.1811
      6 O          24.4855   71.2613    0.6401 O.3     1  UNL1       -0.3308
      7 O          21.7103   70.2375    1.1314 O.3     1  UNL1       -0.3794
      8 O          22.1247   71.8828    3.2661 O.3     1  UNL1       -0.3779
      9 C          22.1463   71.5685    0.8554 C.3     1  UNL1        0.1713
     10 C          22.8258   72.1613    2.0718 C.3     1  UNL1        0.1895
     11 C          23.2933   71.4894   -0.1434 C.3     1  UNL1        0.1764
     12 C          24.1906   71.4956    2.0269 C.3     1  UNL1        0.2383
     13 H          21.3177   69.8859    0.3142 H       1  UNL1        0.2105
     14 H          21.2279   72.2472    3.1709 H       1  UNL1        0.2106
     15 O          26.8645   70.6700    2.4063 O.2     1  UNL1       -0.2464
     16 O          28.0593   74.7423    4.2029 O.2     1  UNL1       -0.2670
     17 N          25.2213   72.3195    2.5910 N.ar    1  UNL1       -0.2551
     18 N          27.4576   72.6982    3.3012 N.ar    1  UNL1       -0.2743
     19 C          26.5320   71.8090    2.7392 C.ar    1  UNL1        0.3323
     20 C          24.9288   73.6187    2.9909 C.ar    1  UNL1        0.0869
     21 C          25.8225   74.4544    3.5246 C.ar    1  UNL1        0.0795
     22 C          27.2139   73.9988    3.7145 C.ar    1  UNL1        0.2626
     23 H          28.4062   72.3524    3.4178 H       1  UNL1        0.1734
     24 O          22.3985   72.1805   -4.6113 O.3     1  UNL1       -0.2703
     25 P          21.7699   73.3101   -5.5816 P.3     1  UNL1        0.2208
     26 O          22.8609   73.4275   -6.7699 O.3     1  UNL1       -0.4371
     27 O          21.4594   74.6090   -4.8944 O.2     1  UNL1       -0.5170
     28 O          20.4948   72.5969   -6.2668 O.3     1  UNL1       -0.2858
     29 O          19.6540   70.4048   -5.9719 O.3     1  UNL1       -0.3226
     30 O          18.6775   71.1861   -9.9361 O.3     1  UNL1       -0.3794
     31 O          21.2572   72.0122   -8.8552 O.3     1  UNL1       -0.3775
     32 O          18.1239   69.2107   -8.0864 O.3     1  UNL1       -0.3792
     33 C          18.9131   71.4451   -8.5549 C.3     1  UNL1        0.1718
     34 C          20.3663   71.1223   -8.1910 C.3     1  UNL1        0.1968
     35 C          17.9605   70.5848   -7.7202 C.3     1  UNL1        0.1723
     36 C          20.5845   71.2331   -6.6769 C.3     1  UNL1        0.2706
     37 C          18.2933   70.7411   -6.2380 C.3     1  UNL1        0.1830
     38 H          17.7473   71.4014  -10.1205 H       1  UNL1        0.2105
     39 H          22.1614   71.7762   -8.5875 H       1  UNL1        0.2106
     40 H          18.9647   68.8907   -7.7179 H       1  UNL1        0.2106
     41 O          16.3430   69.4518   -6.0439 O.co2   1  UNL1       -0.5466
     42 O          17.7743   69.4427   -4.2696 O.co2   1  UNL1       -0.5466
     43 C          17.4727   69.8196   -5.3927 C.2     1  UNL1        0.0799
@<TRIPOS>UNITY_ATOM_ATTR
41 1
charge -1
@<TRIPOS>BOND
     1     1     4    1
     2     1    24    1
     3     1     2    1
     4     1     3    2
     5    25    28    1
     6    25    24    1
     7    25    26    1
     8    25    27    2
     9     6    11    1
    10     6    12    1
    11    29    36    1
    12    29    37    1
    13     7     9    1
    14     7    13    1
    15     8    10    1
    16     8    14    1
    17     4     5    1
    18    28    36    1
    19    30    33    1
    20    30    38    1
    21    31    34    1
    22    31    39    1
    23    32    35    1
    24    32    40    1
    25    41    43   ar
    26    15    19    2
    27    42    43   ar
    28    16    22    2
    29    17    12    1
    30    17    19   ar
    31    17    20   ar
    32    18    19   ar
    33    18    22   ar
    34    18    23    1
    35     9    10    1
    36     9    11    1
    37    10    12    1
    38    11     5    1
    39    33    34    1
    40    33    35    1
    41    34    36    1
    42    35    37    1
    43    37    43    1
    44    20    21   ar
    45    21    22   ar
@<TRIPOS>MOLECULE
UDP-glaA
 43 45 0 0 0
SMALL
GASTEIGER

@<TRIPOS>ATOM
      1 P          19.9695   74.2836   -1.9454 P.3     1  UNL1        0.2189
      2 O          18.9495   75.2924   -1.1977 O.3     1  UNL1       -0.4371
      3 O          21.4025   74.7291   -1.9612 O.2     1  UNL1       -0.5170
      4 O          19.2912   74.0466   -3.3943 O.3     1  UNL1       -0.3112
      5 C          19.0630   72.7158   -3.8259 C.3     1  UNL1        0.1811
      6 O          17.1711   72.5604   -5.2993 O.3     1  UNL1       -0.3308
      7 O          15.7796   71.1345   -3.0584 O.3     1  UNL1       -0.3794
      8 O          16.5325   69.0849   -4.6919 O.3     1  UNL1       -0.3779
      9 C          17.1515   71.0808   -3.4492 C.3     1  UNL1        0.1713
     10 C          17.3049   70.2674   -4.7171 C.3     1  UNL1        0.1895
     11 C          17.5629   72.4724   -3.9116 C.3     1  UNL1        0.1764
     12 C          16.8375   71.2476   -5.7796 C.3     1  UNL1        0.2383
     13 H          15.7255   71.6964   -2.2667 H       1  UNL1        0.2105
     14 H          16.8192   68.5644   -3.9217 H       1  UNL1        0.2106
     15 O          15.4928   70.5248   -8.1554 O.2     1  UNL1       -0.2464
     16 O          19.4166   70.4551  -10.5715 O.2     1  UNL1       -0.2670
     17 N          17.4826   71.0347   -7.0436 N.ar    1  UNL1       -0.2551
     18 N          17.4477   70.4900   -9.3568 N.ar    1  UNL1       -0.2743
     19 C          16.7160   70.6734   -8.1761 C.ar    1  UNL1        0.3323
     20 C          18.8608   71.1840   -7.1523 C.ar    1  UNL1        0.0869
     21 C          19.5437   71.0062   -8.2854 C.ar    1  UNL1        0.0795
     22 C          18.8182   70.6267   -9.5139 C.ar    1  UNL1        0.2626
     23 H          16.9173   70.2293  -10.1837 H       1  UNL1        0.1734
     24 O          19.7094   72.8784   -1.1885 O.3     1  UNL1       -0.2703
     25 P          20.6164   71.5443   -1.0882 P.3     1  UNL1        0.2208
     26 O          21.8439   71.8536   -2.0949 O.3     1  UNL1       -0.4371
     27 O          19.8758   70.2721   -1.3860 O.2     1  UNL1       -0.5170
     28 O          21.2714   71.6049    0.3853 O.3     1  UNL1       -0.2858
     29 O          21.9731   73.3870    1.7750 O.3     1  UNL1       -0.3226
     30 O          24.8744   70.5055    2.5223 O.3     1  UNL1       -0.3794
     31 O          23.8919   70.9509   -0.1874 O.3     1  UNL1       -0.3775
     32 O          24.1695   72.9609    3.5730 O.3     1  UNL1       -0.3792
     33 C          23.5897   71.0440    2.2223 C.3     1  UNL1        0.1718
     34 C          23.6324   71.8261    0.9052 C.3     1  UNL1        0.1968
     35 C          23.1604   71.9671    3.3660 C.3     1  UNL1        0.1723
     36 C          22.3032   72.5513    0.6608 C.3     1  UNL1        0.2706
     37 C          21.8521   72.6643    2.9992 C.3     1  UNL1        0.1830
     38 H          24.8009   70.0223    3.3629 H       1  UNL1        0.2105
     39 H          23.9002   71.4877   -0.9977 H       1  UNL1        0.2106
     40 H          24.1232   73.6044    2.8457 H       1  UNL1        0.2106
     41 O          20.6572   74.6217    3.4937 O.co2   1  UNL1       -0.5466
     42 O          21.8128   73.6512    5.2024 O.co2   1  UNL1       -0.5466
     43 C          21.4616   73.6735    4.0317 C.2     1  UNL1        0.0799
@<TRIPOS>UNITY_ATOM_ATTR
41 1
charge -1
@<TRIPOS>BOND
     1     1     4    1
     2     1    24    1
     3     1     2    1
     4     1     3    2
     5    25    28    1
     6    25    24    1
     7    25    26    1
     8    25    27    2
     9     6    11    1
    10     6    12    1
    11    29    36    1
    12    29    37    1
    13     7     9    1
    14     7    13    1
    15     8    10    1
    16     8    14    1
    17     4     5    1
    18    28    36    1
    19    30    33    1
    20    30    38    1
    21    31    34    1
    22    31    39    1
    23    32    35    1
    24    32    40    1
    25    41    43   ar
    26    15    19    2
    27    42    43   ar
    28    16    22    2
    29    17    12    1
    30    17    19   ar
    31    17    20   ar
    32    18    19   ar
    33    18    22   ar
    34    18    23    1
    35     9    10    1
    36     9    11    1
    37    10    12    1
    38    11     5    1
    39    33    34    1
    40    33    35    1
    41    34    36    1
    42    35    37    1
    43    37    43    1
    44    20    21   ar
    45    21    22   ar
@<TRIPOS>MOLECULE
UDP-glaA
 43 45 0 0 0
SMALL
GASTEIGER

@<TRIPOS>ATOM
      1 P          22.6225   74.5929   -4.2744 P.3     1  UNL1        0.2189
      2 O          21.9549   75.5343   -5.4082 O.3     1  UNL1       -0.4371
      3 O          23.8924   75.1249   -3.6773 O.2     1  UNL1       -0.5170
      4 O          22.7330   73.1447   -4.9858 O.3     1  UNL1       -0.3112
      5 C          21.6481   72.2417   -4.8559 C.3     1  UNL1        0.1811
      6 O          20.5426   70.4346   -5.9903 O.3     1  UNL1       -0.3308
      7 O          20.8711   72.0526   -8.4934 O.3     1  UNL1       -0.3794
      8 O          18.2664   72.5082   -7.8274 O.3     1  UNL1       -0.3779
      9 C          20.6047   72.4928   -7.1618 C.3     1  UNL1        0.1713
     10 C          19.1686   72.1930   -6.7871 C.3     1  UNL1        0.1895
     11 C          21.3778   71.5935   -6.2063 C.3     1  UNL1        0.1764
     12 C          19.2234   70.7036   -6.4929 C.3     1  UNL1        0.2383
     13 H          21.8100   72.2293   -8.6746 H       1  UNL1        0.2105
     14 H          18.3709   73.4541   -8.0288 H       1  UNL1        0.2106
     15 O          16.5706   69.9345   -7.0816 O.2     1  UNL1       -0.2464
     16 O          15.6067   69.1884   -2.6372 O.2     1  UNL1       -0.2670
     17 N          18.2581   70.3031   -5.5095 N.ar    1  UNL1       -0.2551
     18 N          16.0922   69.5640   -4.8680 N.ar    1  UNL1       -0.2743
     19 C          16.9519   69.9366   -5.9098 C.ar    1  UNL1        0.3323
     20 C          18.6092   70.2766   -4.1643 C.ar    1  UNL1        0.0869
     21 C          17.7782   69.9185   -3.1830 C.ar    1  UNL1        0.0795
     22 C          16.3955   69.5223   -3.5160 C.ar    1  UNL1        0.2626
     23 H          15.1478   69.2971   -5.1324 H       1  UNL1        0.1734
     24 O          21.4159   74.3873   -3.2176 O.3     1  UNL1       -0.2703
     25 P          20.8733   75.3393   -2.0294 P.3     1  UNL1        0.2208
     26 O          19.2669   75.1805   -2.1310 O.3     1  UNL1       -0.4371
     27 O          21.3621   76.7575   -2.1046 O.2     1  UNL1       -0.5170
     28 O          21.2750   74.5669   -0.6707 O.3     1  UNL1       -0.2858
     29 O          20.8823   72.4049    0.2071 O.3     1  UNL1       -0.3226
     30 O          20.4028   74.8084    3.5645 O.3     1  UNL1       -0.3794
     31 O          19.3420   75.6450    0.9798 O.3     1  UNL1       -0.3775
     32 O          20.5427   72.0999    3.0409 O.3     1  UNL1       -0.3792
     33 C          20.9252   74.3712    2.3131 C.3     1  UNL1        0.1718
     34 C          19.8167   74.3314    1.2557 C.3     1  UNL1        0.1968
     35 C          21.5312   72.9762    2.4896 C.3     1  UNL1        0.1723
     36 C          20.3292   73.7008   -0.0451 C.3     1  UNL1        0.2706
     37 C          21.9686   72.4311    1.1317 C.3     1  UNL1        0.1830
     38 H          21.1367   74.8159    4.2023 H       1  UNL1        0.2105
     39 H          18.6508   75.5704    0.3004 H       1  UNL1        0.2106
     40 H          19.8963   71.8876    2.3465 H       1  UNL1        0.2106
     41 O          21.4406   70.1505    0.9774 O.co2   1  UNL1       -0.5466
     42 O          23.5902   70.6843    1.5172 O.co2   1  UNL1       -0.5466
     43 C          22.4479   71.0184    1.2378 C.2     1  UNL1        0.0799
@<TRIPOS>UNITY_ATOM_ATTR
41 1
charge -1
@<TRIPOS>BOND
     1     1     4    1
     2     1    24    1
     3     1     2    1
     4     1     3    2
     5    25    28    1
     6    25    24    1
     7    25    26    1
     8    25    27    2
     9     6    11    1
    10     6    12    1
    11    29    36    1
    12    29    37    1
    13     7     9    1
    14     7    13    1
    15     8    10    1
    16     8    14    1
    17     4     5    1
    18    28    36    1
    19    30    33    1
    20    30    38    1
    21    31    34    1
    22    31    39    1
    23    32    35    1
    24    32    40    1
    25    41    43   ar
    26    15    19    2
    27    42    43   ar
    28    16    22    2
    29    17    12    1
    30    17    19   ar
    31    17    20   ar
    32    18    19   ar
    33    18    22   ar
    34    18    23    1
    35     9    10    1
    36     9    11    1
    37    10    12    1
    38    11     5    1
    39    33    34    1
    40    33    35    1
    41    34    36    1
    42    35    37    1
    43    37    43    1
    44    20    21   ar
    45    21    22   ar
@<TRIPOS>MOLECULE
UDP-glaA
 43 45 0 0 0
SMALL
GASTEIGER

@<TRIPOS>ATOM
      1 P          22.3661   72.2864   -4.7201 P.3     1  UNL1        0.2189
      2 O          23.9534   72.5241   -4.5167 O.3     1  UNL1       -0.4371
      3 O          21.7794   71.1839   -3.8879 O.2     1  UNL1       -0.5170
      4 O          22.1981   72.1246   -6.3204 O.3     1  UNL1       -0.3112
      5 C          20.8937   72.1731   -6.8730 C.3     1  UNL1        0.1811
      6 O          19.5148   70.3314   -6.1793 O.3     1  UNL1       -0.3308
      7 O          19.7857   69.3141   -8.9870 O.3     1  UNL1       -0.3794
      8 O          17.3093   70.4556   -9.0035 O.3     1  UNL1       -0.3779
      9 C          19.6831   70.6590   -8.5196 C.3     1  UNL1        0.1713
     10 C          18.2624   70.9589   -8.0904 C.3     1  UNL1        0.1895
     11 C          20.4415   70.7576   -7.2024 C.3     1  UNL1        0.1764
     12 C          18.1909   70.2754   -6.7355 C.3     1  UNL1        0.2383
     13 H          20.7182   69.1562   -9.2131 H       1  UNL1        0.2105
     14 H          17.4915   70.8598   -9.8693 H       1  UNL1        0.2106
     15 O          16.7642   68.9685   -4.6783 O.2     1  UNL1       -0.2464
     16 O          14.7201   72.8826   -3.3593 O.2     1  UNL1       -0.2670
     17 N          17.2798   70.9284   -5.8395 N.ar    1  UNL1       -0.2551
     18 N          15.7469   70.9184   -4.0232 N.ar    1  UNL1       -0.2743
     19 C          16.6130   70.1807   -4.8410 C.ar    1  UNL1        0.3323
     20 C          17.0542   72.2956   -5.9551 C.ar    1  UNL1        0.0869
     21 C          16.2257   72.9846   -5.1674 C.ar    1  UNL1        0.0795
     22 C          15.4897   72.2784   -4.1000 C.ar    1  UNL1        0.2626
     23 H          15.2562   70.4013   -3.2987 H       1  UNL1        0.1734
     24 O          21.7411   73.7505   -4.4355 O.3     1  UNL1       -0.2703
     25 P          21.2349   74.4389   -3.0635 P.3     1  UNL1        0.2208
     26 O          19.8181   73.7106   -2.7836 O.3     1  UNL1       -0.4371
     27 O          21.1615   75.9381   -3.1171 O.2     1  UNL1       -0.5170
     28 O          22.2233   73.8601   -1.9268 O.3     1  UNL1       -0.2858
     29 O          21.7675   72.7727    0.1249 O.3     1  UNL1       -0.3226
     30 O          25.1987   74.9377    1.0300 O.3     1  UNL1       -0.3794
     31 O          23.0867   76.1203   -0.5968 O.3     1  UNL1       -0.3775
     32 O          23.6645   73.0021    2.2667 O.3     1  UNL1       -0.3792
     33 C          24.2795   74.1791    0.2490 C.3     1  UNL1        0.1718
     34 C          22.9380   74.9119    0.1411 C.3     1  UNL1        0.1968
     35 C          24.0783   72.8125    0.9096 C.3     1  UNL1        0.1723
     36 C          21.8909   74.0293   -0.5494 C.3     1  UNL1        0.2706
     37 C          22.9904   72.0390    0.1677 C.3     1  UNL1        0.1830
     38 H          26.0306   74.4360    1.0734 H       1  UNL1        0.2105
     39 H          22.2128   76.5430   -0.6467 H       1  UNL1        0.2106
     40 H          22.7387   73.2989    2.2688 H       1  UNL1        0.2106
     41 O          23.7895   70.1928    1.3746 O.co2   1  UNL1       -0.5466
     42 O          21.5517   70.2627    0.9452 O.co2   1  UNL1       -0.5466
     43 C          22.6691   70.7506    0.8558 C.2     1  UNL1        0.0799
@<TRIPOS>UNITY_ATOM_ATTR
41 1
charge -1
@<TRIPOS>BOND
     1     1     4    1
     2     1    24    1
     3     1     2    1
     4     1     3    2
     5    25    28    1
     6    25    24    1
     7    25    26    1
     8    25    27    2
     9     6    11    1
    10     6    12    1
    11    29    36    1
    12    29    37    1
    13     7     9    1
    14     7    13    1
    15     8    10    1
    16     8    14    1
    17     4     5    1
    18    28    36    1
    19    30    33    1
    20    30    38    1
    21    31    34    1
    22    31    39    1
    23    32    35    1
    24    32    40    1
    25    41    43   ar
    26    15    19    2
    27    42    43   ar
    28    16    22    2
    29    17    12    1
    30    17    19   ar
    31    17    20   ar
    32    18    19   ar
    33    18    22   ar
    34    18    23    1
    35     9    10    1
    36     9    11    1
    37    10    12    1
    38    11     5    1
    39    33    34    1
    40    33    35    1
    41    34    36    1
    42    35    37    1
    43    37    43    1
    44    20    21   ar
    45    21    22   ar
