@<TRIPOS>MOLECULE
*****
 43 45 0 0 0
SMALL
GASTEIGER

@<TRIPOS>ATOM
      1 P          23.0580   71.6818   -2.5580 P.3     1  UNL1        0.2189
      2 O          23.3580   73.2185   -2.1506 O.co2   1  UNL1       -0.4371
      3 O          24.2028   70.9639   -3.2103 O.2     1  UNL1       -0.5170
      4 O          21.6964   71.7692   -3.4276 O.3     1  UNL1       -0.3112
      5 C          20.9106   70.5991   -3.5729 C.3     1  UNL1        0.1811
      6 O          18.9123   71.5566   -4.5024 O.3     1  UNL1       -0.3308
      7 O          17.4398   70.1556   -2.2979 O.3     1  UNL1       -0.3794
      8 O          17.0012   68.5225   -4.4373 O.3     1  UNL1       -0.3779
      9 C          18.5824   69.7249   -3.0355 C.3     1  UNL1        0.1713
     10 C          18.1782   69.3043   -4.4331 C.3     1  UNL1        0.1895
     11 C          19.4516   70.9459   -3.3097 C.3     1  UNL1        0.1764
     12 C          17.9924   70.6445   -5.1241 C.3     1  UNL1        0.2383
     13 H          16.8696   69.3928   -2.1107 H       1  UNL1        0.2105
     14 H          17.1705   67.6805   -3.9866 H       1  UNL1        0.2106
     15 O          16.1120   69.9182   -7.1026 O.2     1  UNL1       -0.2464
     16 O          19.1996   70.4307  -10.4857 O.2     1  UNL1       -0.2670
     17 N          18.2778   70.5802   -6.5298 N.ar    1  UNL1       -0.2551
     18 N          17.6509   70.1742   -8.7855 N.ar    1  UNL1       -0.2743
     19 C          17.2629   70.2033   -7.4399 C.ar    1  UNL1        0.3323
     20 C          19.5521   70.8892   -6.9930 C.ar    1  UNL1        0.0869
     21 C          19.9063   70.8554   -8.2793 C.ar    1  UNL1        0.0795
     22 C          18.9049   70.4714   -9.2952 C.ar    1  UNL1        0.2626
     23 H          16.9605   69.9140   -9.4378 H       1  UNL1        0.1734
     24 O          22.5590   71.0277   -1.1665 O.3     1  UNL1       -0.2703
     25 P          21.6262   71.6228    0.0119 P.3     1  UNL1        0.2208
     26 O          21.1497   70.2998    0.8119 O.co2   1  UNL1       -0.4371
     27 O          20.5021   72.4920   -0.4727 O.2     1  UNL1       -0.5170
     28 O          22.6549   72.3575    1.0154 O.3     1  UNL1       -0.2858
     29 O          24.4643   71.8098    2.4447 O.3     1  UNL1       -0.3258
     30 O          22.1282   73.9202    5.1167 O.3     1  UNL1       -0.3794
     31 O          24.5460   75.0979    4.1093 O.3     1  UNL1       -0.3794
     32 O          20.8815   72.1648    3.1818 O.3     1  UNL1       -0.3775
     33 C          22.6912   73.6123    3.8386 C.3     1  UNL1        0.1715
     34 C          24.2134   73.7220    3.9460 C.3     1  UNL1        0.1694
     35 C          22.2810   72.1957    3.4406 C.3     1  UNL1        0.1967
     36 C          24.8995   73.1508    2.6978 C.3     1  UNL1        0.1761
     37 C          23.0575   71.7055    2.2171 C.3     1  UNL1        0.2704
     38 H          22.3844   74.8186    5.3751 H       1  UNL1        0.2105
     39 H          24.1061   75.4465    4.9006 H       1  UNL1        0.2105
     40 H          20.4012   72.4771    3.9638 H       1  UNL1        0.2106
     41 O          26.8226   71.7508    2.9226 O.3     1  UNL1       -0.3794
     42 C          26.4183   73.1057    2.8501 C.3     1  UNL1        0.1693
     43 H          27.7872   71.7066    3.0194 H       1  UNL1        0.2105
@<TRIPOS>UNITY_ATOM_ATTR
2 1
charge -1
26 1
charge -1
@<TRIPOS>BOND
     1    25    28    1
     2    25    24    1
     3    25    26    1
     4    25    27    2
     5     1     4    1
     6     1    24    1
     7     1     2    1
     8     1     3    2
     9     6    11    1
    10     6    12    1
    11    29    36    1
    12    29    37    1
    13     7     9    1
    14     7    13    1
    15     8    10    1
    16     8    14    1
    17    28    37    1
    18     4     5    1
    19    30    33    1
    20    30    38    1
    21    31    34    1
    22    31    39    1
    23    32    35    1
    24    32    40    1
    25    41    42    1
    26    41    43    1
    27    15    19    2
    28    16    22    2
    29    17    12    1
    30    17    19   ar
    31    17    20   ar
    32    18    19   ar
    33    18    22   ar
    34    18    23    1
    35     9    10    1
    36     9    11    1
    37    10    12    1
    38    11     5    1
    39    33    34    1
    40    33    35    1
    41    34    36    1
    42    35    37    1
    43    36    42    1
    44    20    21   ar
    45    21    22   ar
@<TRIPOS>MOLECULE
*****
 43 45 0 0 0
SMALL
GASTEIGER

@<TRIPOS>ATOM
      1 P          19.8509   72.2844   -1.5949 P.3     1  UNL1        0.2189
      2 O          18.4133   72.9030   -1.1849 O.co2   1  UNL1       -0.4371
      3 O          20.6395   73.1066   -2.5713 O.2     1  UNL1       -0.5170
      4 O          19.5045   70.7756   -2.0654 O.3     1  UNL1       -0.3112
      5 C          19.1431   70.5552   -3.4177 C.3     1  UNL1        0.1811
      6 O          17.4537   71.4752   -4.8577 O.3     1  UNL1       -0.3308
      7 O          15.4816   69.8986   -3.2403 O.3     1  UNL1       -0.3794
      8 O          15.7800   68.3637   -5.4745 O.3     1  UNL1       -0.3779
      9 C          16.8123   69.5561   -3.6241 C.3     1  UNL1        0.1713
     10 C          16.8587   69.1933   -5.0938 C.3     1  UNL1        0.1895
     11 C          17.6539   70.8256   -3.5832 C.3     1  UNL1        0.1764
     12 C          16.8084   70.5591   -5.7572 C.3     1  UNL1        0.2383
     13 H          14.9253   69.1035   -3.2586 H       1  UNL1        0.2105
     14 H          15.8569   67.5070   -5.0263 H       1  UNL1        0.2106
     15 O          15.5261   70.5609   -8.2739 O.2     1  UNL1       -0.2464
     16 O          19.5460   70.6439  -10.5267 O.2     1  UNL1       -0.2670
     17 N          17.4955   70.5813   -7.0177 N.ar    1  UNL1       -0.2551
     18 N          17.5288   70.6024   -9.3936 N.ar    1  UNL1       -0.2743
     19 C          16.7578   70.5792   -8.2244 C.ar    1  UNL1        0.3323
     20 C          18.8856   70.6053   -7.0488 C.ar    1  UNL1        0.0869
     21 C          19.6060   70.6259   -8.1722 C.ar    1  UNL1        0.0795
     22 C          18.9120   70.6254   -9.4762 C.ar    1  UNL1        0.2626
     23 H          17.0363   70.6010  -10.2464 H       1  UNL1        0.1734
     24 O          20.5721   72.0626   -0.1654 O.3     1  UNL1       -0.2703
     25 P          21.8582   71.1751    0.2484 P.3     1  UNL1        0.2208
     26 O          22.6288   70.9604   -1.1578 O.co2   1  UNL1       -0.4371
     27 O          21.5212   69.9027    0.9705 O.2     1  UNL1       -0.5170
     28 O          22.8019   72.1864    1.0802 O.3     1  UNL1       -0.2858
     29 O          24.5276   72.2545    2.7031 O.3     1  UNL1       -0.3258
     30 O          21.6328   74.3923    4.7281 O.3     1  UNL1       -0.3794
     31 O          23.9161   75.7633    3.6535 O.3     1  UNL1       -0.3794
     32 O          20.8799   72.1038    3.1232 O.3     1  UNL1       -0.3775
     33 C          22.3600   73.9484    3.5794 C.3     1  UNL1        0.1715
     34 C          23.8268   74.3450    3.7576 C.3     1  UNL1        0.1694
     35 C          22.2241   72.4318    3.4579 C.3     1  UNL1        0.1967
     36 C          24.7144   73.6747    2.7003 C.3     1  UNL1        0.1761
     37 C          23.1849   71.8604    2.4137 C.3     1  UNL1        0.2704
     38 H          21.7146   75.3545    4.8107 H       1  UNL1        0.2105
     39 H          23.3507   76.1743    4.3262 H       1  UNL1        0.2105
     40 H          20.2815   72.4708    3.7919 H       1  UNL1        0.2106
     41 O          26.8337   72.6874    3.1934 O.3     1  UNL1       -0.3794
     42 C          26.1985   73.9299    2.9542 C.3     1  UNL1        0.1693
     43 H          27.7790   72.8343    3.3563 H       1  UNL1        0.2105
@<TRIPOS>UNITY_ATOM_ATTR
2 1
charge -1
26 1
charge -1
@<TRIPOS>BOND
     1    25    28    1
     2    25    24    1
     3    25    26    1
     4    25    27    2
     5     1     4    1
     6     1    24    1
     7     1     2    1
     8     1     3    2
     9     6    11    1
    10     6    12    1
    11    29    36    1
    12    29    37    1
    13     7     9    1
    14     7    13    1
    15     8    10    1
    16     8    14    1
    17    28    37    1
    18     4     5    1
    19    30    33    1
    20    30    38    1
    21    31    34    1
    22    31    39    1
    23    32    35    1
    24    32    40    1
    25    41    42    1
    26    41    43    1
    27    15    19    2
    28    16    22    2
    29    17    12    1
    30    17    19   ar
    31    17    20   ar
    32    18    19   ar
    33    18    22   ar
    34    18    23    1
    35     9    10    1
    36     9    11    1
    37    10    12    1
    38    11     5    1
    39    33    34    1
    40    33    35    1
    41    34    36    1
    42    35    37    1
    43    36    42    1
    44    20    21   ar
    45    21    22   ar
@<TRIPOS>MOLECULE
*****
 43 45 0 0 0
SMALL
GASTEIGER

@<TRIPOS>ATOM
      1 P          21.4144   71.5955   -2.7055 P.3     1  UNL1        0.2189
      2 O          21.8039   73.1394   -2.4186 O.co2   1  UNL1       -0.4371
      3 O          22.1826   70.9443   -3.8178 O.2     1  UNL1       -0.5170
      4 O          19.8069   71.6277   -2.8866 O.3     1  UNL1       -0.3112
      5 C          19.1683   70.4993   -3.4581 C.3     1  UNL1        0.1811
      6 O          17.4876   71.4535   -4.8859 O.3     1  UNL1       -0.3308
      7 O          15.4968   69.9070   -3.2623 O.3     1  UNL1       -0.3794
      8 O          15.7557   68.3741   -5.5028 O.3     1  UNL1       -0.3779
      9 C          16.8191   69.5422   -3.6546 C.3     1  UNL1        0.1713
     10 C          16.8510   69.1833   -5.1256 C.3     1  UNL1        0.1895
     11 C          17.6832   70.7965   -3.6145 C.3     1  UNL1        0.1764
     12 C          16.8212   70.5518   -5.7846 C.3     1  UNL1        0.2383
     13 H          14.9264   69.1219   -3.2799 H       1  UNL1        0.2105
     14 H          15.8199   67.5148   -5.0577 H       1  UNL1        0.2106
     15 O          15.5253   70.5967   -8.2939 O.2     1  UNL1       -0.2464
     16 O          19.5335   70.6026  -10.5689 O.2     1  UNL1       -0.2670
     17 N          17.5016   70.5659   -7.0488 N.ar    1  UNL1       -0.2551
     18 N          17.5222   70.5998   -9.4247 N.ar    1  UNL1       -0.2743
     19 C          16.7573   70.5871   -8.2513 C.ar    1  UNL1        0.3323
     20 C          18.8917   70.5588   -7.0877 C.ar    1  UNL1        0.0869
     21 C          19.6061   70.5698   -8.2150 C.ar    1  UNL1        0.0795
     22 C          18.9051   70.5922   -9.5150 C.ar    1  UNL1        0.2626
     23 H          17.0251   70.6143  -10.2747 H       1  UNL1        0.1734
     24 O          21.6032   70.8983   -1.2594 O.3     1  UNL1       -0.2703
     25 P          21.9819   71.5269    0.1809 P.3     1  UNL1        0.2208
     26 O          21.8362   70.2671    1.1855 O.co2   1  UNL1       -0.4371
     27 O          21.1607   72.7235    0.5651 O.2     1  UNL1       -0.5170
     28 O          23.5701   71.8032    0.1012 O.3     1  UNL1       -0.2858
     29 O          23.9091   73.9401    1.0683 O.3     1  UNL1       -0.3258
     30 O          22.3013   71.9865    4.3317 O.3     1  UNL1       -0.3794
     31 O          20.7290   73.9407    2.9327 O.3     1  UNL1       -0.3794
     32 O          24.1287   70.5935    2.5710 O.3     1  UNL1       -0.3775
     33 C          22.4603   72.2904    2.9432 C.3     1  UNL1        0.1715
     34 C          22.1297   73.7697    2.7352 C.3     1  UNL1        0.1694
     35 C          23.9016   71.9983    2.5301 C.3     1  UNL1        0.1967
     36 C          22.5318   74.2347    1.3290 C.3     1  UNL1        0.1761
     37 C          24.2113   72.5451    1.1355 C.3     1  UNL1        0.2704
     38 H          21.3881   72.1693    4.6002 H       1  UNL1        0.2105
     39 H          20.4882   73.6429    3.8241 H       1  UNL1        0.2105
     40 H          23.9294   70.2596    3.4590 H       1  UNL1        0.2106
     41 O          22.8636   76.1075   -0.1171 O.3     1  UNL1       -0.3794
     42 C          22.3569   75.7415    1.1532 C.3     1  UNL1        0.1693
     43 H          22.7587   77.0640   -0.2431 H       1  UNL1        0.2105
@<TRIPOS>UNITY_ATOM_ATTR
2 1
charge -1
26 1
charge -1
@<TRIPOS>BOND
     1    25    28    1
     2    25    24    1
     3    25    26    1
     4    25    27    2
     5     1     4    1
     6     1    24    1
     7     1     2    1
     8     1     3    2
     9     6    11    1
    10     6    12    1
    11    29    36    1
    12    29    37    1
    13     7     9    1
    14     7    13    1
    15     8    10    1
    16     8    14    1
    17    28    37    1
    18     4     5    1
    19    30    33    1
    20    30    38    1
    21    31    34    1
    22    31    39    1
    23    32    35    1
    24    32    40    1
    25    41    42    1
    26    41    43    1
    27    15    19    2
    28    16    22    2
    29    17    12    1
    30    17    19   ar
    31    17    20   ar
    32    18    19   ar
    33    18    22   ar
    34    18    23    1
    35     9    10    1
    36     9    11    1
    37    10    12    1
    38    11     5    1
    39    33    34    1
    40    33    35    1
    41    34    36    1
    42    35    37    1
    43    36    42    1
    44    20    21   ar
    45    21    22   ar
@<TRIPOS>MOLECULE
*****
 43 45 0 0 0
SMALL
GASTEIGER

@<TRIPOS>ATOM
      1 P          21.2168   72.1569   -4.7011 P.3     1  UNL1        0.2189
      2 O          20.6445   73.6068   -4.2677 O.co2   1  UNL1       -0.4371
      3 O          22.1289   72.1659   -5.8925 O.2     1  UNL1       -0.5170
      4 O          19.8901   71.2410   -4.8388 O.3     1  UNL1       -0.3112
      5 C          19.2293   70.8260   -3.6560 C.3     1  UNL1        0.1811
      6 O          17.4975   71.5640   -5.1494 O.3     1  UNL1       -0.3308
      7 O          15.5874   70.1094   -3.3531 O.3     1  UNL1       -0.3794
      8 O          15.8885   68.3712   -5.4327 O.3     1  UNL1       -0.3779
      9 C          16.9199   69.7606   -3.7247 C.3     1  UNL1        0.1713
     10 C          16.9529   69.2574   -5.1527 C.3     1  UNL1        0.1895
     11 C          17.7318   71.0462   -3.8215 C.3     1  UNL1        0.1764
     12 C          16.8606   70.5507   -5.9446 C.3     1  UNL1        0.2383
     13 H          15.0497   69.3043   -3.2846 H       1  UNL1        0.2105
     14 H          15.9923   67.5641   -4.9048 H       1  UNL1        0.2106
     15 O          15.5695   70.7810   -8.4462 O.2     1  UNL1       -0.2464
     16 O          19.5223   70.2049  -10.7451 O.2     1  UNL1       -0.2670
     17 N          17.5281   70.4652   -7.2129 N.ar    1  UNL1       -0.2551
     18 N          17.5388   70.4942   -9.5889 N.ar    1  UNL1       -0.2743
     19 C          16.7874   70.5932   -8.4109 C.ar    1  UNL1        0.3323
     20 C          18.9023   70.2569   -7.2600 C.ar    1  UNL1        0.0869
     21 C          19.6038   70.1635   -8.3916 C.ar    1  UNL1        0.0795
     22 C          18.9054   70.2864   -9.6874 C.ar    1  UNL1        0.2626
     23 H          17.0438   70.5799  -10.4359 H       1  UNL1        0.1734
     24 O          21.8949   71.6118   -3.3388 O.3     1  UNL1       -0.2703
     25 P          23.3648   71.8571   -2.7127 P.3     1  UNL1        0.2208
     26 O          23.7649   73.3229   -3.2685 O.co2   1  UNL1       -0.4371
     27 O          24.3591   70.7796   -3.0361 O.2     1  UNL1       -0.5170
     28 O          23.1055   72.0763   -1.1349 O.3     1  UNL1       -0.2858
     29 O          23.8559   70.6302    0.5862 O.3     1  UNL1       -0.3258
     30 O          20.4741   72.1349    2.4165 O.3     1  UNL1       -0.3794
     31 O          23.0678   72.9734    3.3206 O.3     1  UNL1       -0.3794
     32 O          20.4433   71.5519   -0.4187 O.3     1  UNL1       -0.3775
     33 C          21.6324   72.1814    1.5790 C.3     1  UNL1        0.1715
     34 C          22.8592   71.8731    2.4397 C.3     1  UNL1        0.1694
     35 C          21.4842   71.1477    0.4642 C.3     1  UNL1        0.1967
     36 C          24.1022   71.6419    1.5698 C.3     1  UNL1        0.1761
     37 C          22.7910   70.9587   -0.3082 C.3     1  UNL1        0.2704
     38 H          20.5616   72.7893    3.1262 H       1  UNL1        0.2105
     39 H          22.2755   73.1091    3.8638 H       1  UNL1        0.2105
     40 H          19.6214   71.6679    0.0822 H       1  UNL1        0.2106
     41 O          25.1010   69.8240    2.7559 O.3     1  UNL1       -0.3794
     42 C          25.3002   71.1787    2.3959 C.3     1  UNL1        0.1693
     43 H          25.8559   69.5155    3.2818 H       1  UNL1        0.2105
@<TRIPOS>UNITY_ATOM_ATTR
2 1
charge -1
26 1
charge -1
@<TRIPOS>BOND
     1    25    28    1
     2    25    24    1
     3    25    26    1
     4    25    27    2
     5     1     4    1
     6     1    24    1
     7     1     2    1
     8     1     3    2
     9     6    11    1
    10     6    12    1
    11    29    36    1
    12    29    37    1
    13     7     9    1
    14     7    13    1
    15     8    10    1
    16     8    14    1
    17    28    37    1
    18     4     5    1
    19    30    33    1
    20    30    38    1
    21    31    34    1
    22    31    39    1
    23    32    35    1
    24    32    40    1
    25    41    42    1
    26    41    43    1
    27    15    19    2
    28    16    22    2
    29    17    12    1
    30    17    19   ar
    31    17    20   ar
    32    18    19   ar
    33    18    22   ar
    34    18    23    1
    35     9    10    1
    36     9    11    1
    37    10    12    1
    38    11     5    1
    39    33    34    1
    40    33    35    1
    41    34    36    1
    42    35    37    1
    43    36    42    1
    44    20    21   ar
    45    21    22   ar
@<TRIPOS>MOLECULE
*****
 43 45 0 0 0
SMALL
GASTEIGER

@<TRIPOS>ATOM
      1 P          23.5154   73.5747   -4.1401 P.3     1  UNL1        0.2189
      2 O          22.7282   74.9716   -4.3557 O.co2   1  UNL1       -0.4371
      3 O          25.0079   73.6964   -4.0447 O.2     1  UNL1       -0.5170
      4 O          22.9622   72.6294   -5.3311 O.3     1  UNL1       -0.3112
      5 C          21.5853   72.2952   -5.3448 C.3     1  UNL1        0.1811
      6 O          20.4998   70.3573   -6.2613 O.3     1  UNL1       -0.3308
      7 O          20.6394   71.7614   -8.9070 O.3     1  UNL1       -0.3794
      8 O          18.0537   72.1794   -8.1479 O.3     1  UNL1       -0.3779
      9 C          20.4206   72.3064   -7.6068 C.3     1  UNL1        0.1713
     10 C          19.0178   71.9886   -7.1326 C.3     1  UNL1        0.1895
     11 C          21.2755   71.5219   -6.6193 C.3     1  UNL1        0.1764
     12 C          19.1481   70.5334   -6.7161 C.3     1  UNL1        0.2383
     13 H          20.1040   72.2466   -9.5550 H       1  UNL1        0.2105
     14 H          18.0082   73.1205   -8.3780 H       1  UNL1        0.2106
     15 O          16.4455   69.8005   -7.0860 O.2     1  UNL1       -0.2464
     16 O          15.7927   69.2212   -2.5606 O.2     1  UNL1       -0.2670
     17 N          18.2490   70.1857   -5.6521 N.ar    1  UNL1       -0.2551
     18 N          16.1227   69.5125   -4.8324 N.ar    1  UNL1       -0.2743
     19 C          16.9109   69.8335   -5.9449 C.ar    1  UNL1        0.3323
     20 C          18.6966   70.1958   -4.3355 C.ar    1  UNL1        0.0869
     21 C          17.9320   69.8884   -3.2857 C.ar    1  UNL1        0.0795
     22 C          16.5213   69.5091   -3.5050 C.ar    1  UNL1        0.2626
     23 H          15.1868   69.2643   -5.0121 H       1  UNL1        0.1734
     24 O          22.8054   72.9565   -2.8261 O.3     1  UNL1       -0.2703
     25 P          22.9221   71.4953   -2.1446 P.3     1  UNL1        0.2208
     26 O          24.2426   70.8674   -2.8370 O.co2   1  UNL1       -0.4371
     27 O          21.6886   70.6510   -2.2844 O.2     1  UNL1       -0.5170
     28 O          23.3620   71.7896   -0.6199 O.3     1  UNL1       -0.2858
     29 O          24.5395   70.6490    1.0916 O.3     1  UNL1       -0.3258
     30 O          21.2596   71.8982    3.2671 O.3     1  UNL1       -0.3794
     31 O          23.8058   73.1568    3.6919 O.3     1  UNL1       -0.3794
     32 O          20.9252   71.0092    0.5326 O.3     1  UNL1       -0.3775
     33 C          22.2739   72.0011    2.2641 C.3     1  UNL1        0.1715
     34 C          23.6382   71.9490    2.9547 C.3     1  UNL1        0.1694
     35 C          22.1240   70.8412    1.2816 C.3     1  UNL1        0.1967
     36 C          24.7708   71.7856    1.9321 C.3     1  UNL1        0.1761
     37 C          23.3265   70.7381    0.3416 C.3     1  UNL1        0.2704
     38 H          21.3489   72.6321    3.8939 H       1  UNL1        0.2105
     39 H          23.0840   73.2482    4.3336 H       1  UNL1        0.2105
     40 H          20.1714   71.0728    1.1389 H       1  UNL1        0.2106
     41 O          26.6630   72.8390    2.9414 O.3     1  UNL1       -0.3794
     42 C          26.1242   71.5733    2.6069 C.3     1  UNL1        0.1693
     43 H          27.5244   72.7195    3.3720 H       1  UNL1        0.2105
@<TRIPOS>UNITY_ATOM_ATTR
2 1
charge -1
26 1
charge -1
@<TRIPOS>BOND
     1    25    28    1
     2    25    24    1
     3    25    26    1
     4    25    27    2
     5     1     4    1
     6     1    24    1
     7     1     2    1
     8     1     3    2
     9     6    11    1
    10     6    12    1
    11    29    36    1
    12    29    37    1
    13     7     9    1
    14     7    13    1
    15     8    10    1
    16     8    14    1
    17    28    37    1
    18     4     5    1
    19    30    33    1
    20    30    38    1
    21    31    34    1
    22    31    39    1
    23    32    35    1
    24    32    40    1
    25    41    42    1
    26    41    43    1
    27    15    19    2
    28    16    22    2
    29    17    12    1
    30    17    19   ar
    31    17    20   ar
    32    18    19   ar
    33    18    22   ar
    34    18    23    1
    35     9    10    1
    36     9    11    1
    37    10    12    1
    38    11     5    1
    39    33    34    1
    40    33    35    1
    41    34    36    1
    42    35    37    1
    43    36    42    1
    44    20    21   ar
    45    21    22   ar
@<TRIPOS>MOLECULE
*****
 43 45 0 0 0
SMALL
GASTEIGER

@<TRIPOS>ATOM
      1 P          23.2627   73.2772   -3.6818 P.3     1  UNL1        0.2189
      2 O          23.6873   74.7103   -4.3010 O.co2   1  UNL1       -0.4371
      3 O          24.1471   72.1302   -4.0740 O.2     1  UNL1       -0.5170
      4 O          21.7016   73.1290   -4.0805 O.3     1  UNL1       -0.3112
      5 C          21.1209   71.8365   -4.0698 C.3     1  UNL1        0.1811
      6 O          18.9399   72.2895   -4.9707 O.3     1  UNL1       -0.3308
      7 O          17.8533   70.9945   -2.4943 O.3     1  UNL1       -0.3794
      8 O          17.6138   69.0147   -4.3543 O.3     1  UNL1       -0.3779
      9 C          19.0179   70.6633   -3.2488 C.3     1  UNL1        0.1713
     10 C          18.6290   69.9794   -4.5429 C.3     1  UNL1        0.1895
     11 C          19.6378   71.9620   -3.7493 C.3     1  UNL1        0.1764
     12 C          18.1708   71.1517   -5.3936 C.3     1  UNL1        0.2383
     13 H          17.4401   70.1808   -2.1638 H       1  UNL1        0.2105
     14 H          17.9541   68.2897   -3.8073 H       1  UNL1        0.2106
     15 O          16.2779   70.0112   -7.1525 O.2     1  UNL1       -0.2464
     16 O          19.1395   70.3562  -10.7488 O.2     1  UNL1       -0.2670
     17 N          18.3946   70.9323   -6.7947 N.ar    1  UNL1       -0.2551
     18 N          17.7042   70.1841   -8.9418 N.ar    1  UNL1       -0.2743
     19 C          17.3789   70.3520   -7.5897 C.ar    1  UNL1        0.3323
     20 C          19.6102   71.2914   -7.3669 C.ar    1  UNL1        0.0869
     21 C          19.9051   71.1235   -8.6577 C.ar    1  UNL1        0.0795
     22 C          18.8986   70.5238   -9.5573 C.ar    1  UNL1        0.2626
     23 H          17.0121   69.7813   -9.5149 H       1  UNL1        0.1734
     24 O          23.2058   73.5701   -2.0931 O.3     1  UNL1       -0.2703
     25 P          22.8352   72.6071   -0.8488 P.3     1  UNL1        0.2208
     26 O          23.7433   71.2943   -1.1123 O.co2   1  UNL1       -0.4371
     27 O          21.3676   72.3261   -0.7039 O.2     1  UNL1       -0.5170
     28 O          23.5097   73.3187    0.4333 O.3     1  UNL1       -0.2858
     29 O          21.9222   74.3078    1.8886 O.3     1  UNL1       -0.3258
     30 O          25.3708   75.9428    3.4649 O.3     1  UNL1       -0.3794
     31 O          23.9818   73.8913    4.9174 O.3     1  UNL1       -0.3794
     32 O          25.1028   75.6228    0.6004 O.3     1  UNL1       -0.3775
     33 C          24.5743   74.9292    2.8456 C.3     1  UNL1        0.1715
     34 C          23.4287   74.5727    3.7949 C.3     1  UNL1        0.1694
     35 C          24.0296   75.4618    1.5216 C.3     1  UNL1        0.1967
     36 C          22.3842   73.6917    3.0964 C.3     1  UNL1        0.1761
     37 C          22.9627   74.5350    0.9360 C.3     1  UNL1        0.2704
     38 H          25.7202   75.6109    4.3058 H       1  UNL1        0.2105
     39 H          24.6401   74.4583    5.3492 H       1  UNL1        0.2105
     40 H          25.7713   76.2118    0.9826 H       1  UNL1        0.2106
     41 O          20.3089   72.5288    3.3197 O.3     1  UNL1       -0.3794
     42 C          21.1571   73.4545    3.9739 C.3     1  UNL1        0.1693
     43 H          19.5238   72.3680    3.8668 H       1  UNL1        0.2105
@<TRIPOS>UNITY_ATOM_ATTR
2 1
charge -1
26 1
charge -1
@<TRIPOS>BOND
     1    25    28    1
     2    25    24    1
     3    25    26    1
     4    25    27    2
     5     1     4    1
     6     1    24    1
     7     1     2    1
     8     1     3    2
     9     6    11    1
    10     6    12    1
    11    29    36    1
    12    29    37    1
    13     7     9    1
    14     7    13    1
    15     8    10    1
    16     8    14    1
    17    28    37    1
    18     4     5    1
    19    30    33    1
    20    30    38    1
    21    31    34    1
    22    31    39    1
    23    32    35    1
    24    32    40    1
    25    41    42    1
    26    41    43    1
    27    15    19    2
    28    16    22    2
    29    17    12    1
    30    17    19   ar
    31    17    20   ar
    32    18    19   ar
    33    18    22   ar
    34    18    23    1
    35     9    10    1
    36     9    11    1
    37    10    12    1
    38    11     5    1
    39    33    34    1
    40    33    35    1
    41    34    36    1
    42    35    37    1
    43    36    42    1
    44    20    21   ar
    45    21    22   ar
@<TRIPOS>MOLECULE
*****
 43 45 0 0 0
SMALL
GASTEIGER

@<TRIPOS>ATOM
      1 P          21.7327   72.3922   -5.7415 P.3     1  UNL1        0.2189
      2 O          20.9773   73.8207   -5.6630 O.co2   1  UNL1       -0.4371
      3 O          23.0994   72.4312   -6.3596 O.2     1  UNL1       -0.5170
      4 O          20.6595   71.4248   -6.4697 O.3     1  UNL1       -0.3112
      5 C          20.1935   71.7818   -7.7593 C.3     1  UNL1        0.1811
      6 O          18.8877   69.8202   -7.2893 O.3     1  UNL1       -0.3308
      7 O          18.0310   69.9308  -10.1607 O.3     1  UNL1       -0.3794
      8 O          15.8888   71.0053   -8.8594 O.3     1  UNL1       -0.3779
      9 C          18.2879   71.0019   -9.2539 C.3     1  UNL1        0.1713
     10 C          17.1590   71.1248   -8.2519 C.3     1  UNL1        0.1895
     11 C          19.4579   70.5951   -8.3667 C.3     1  UNL1        0.1764
     12 C          17.4599   69.9824   -7.2966 C.3     1  UNL1        0.2383
     13 H          17.2877   70.1676  -10.7381 H       1  UNL1        0.2105
     14 H          15.7445   71.7551   -9.4575 H       1  UNL1        0.2106
     15 O          16.2641   68.0737   -5.5922 O.2     1  UNL1       -0.2464
     16 O          15.7902   71.1423   -2.1862 O.2     1  UNL1       -0.2670
     17 N          17.0148   70.2552   -5.9591 N.ar    1  UNL1       -0.2551
     18 N          16.0293   69.6031   -3.8976 N.ar    1  UNL1       -0.2743
     19 C          16.4263   69.2266   -5.1870 C.ar    1  UNL1        0.3323
     20 C          17.1639   71.5309   -5.4258 C.ar    1  UNL1        0.0869
     21 C          16.7789   71.8740   -4.1949 C.ar    1  UNL1        0.0795
     22 C          16.1550   70.8580   -3.3228 C.ar    1  UNL1        0.2626
     23 H          15.6164   68.9031   -3.3415 H       1  UNL1        0.1734
     24 O          21.7020   71.8801   -4.2086 O.3     1  UNL1       -0.2703
     25 P          22.7179   72.1466   -2.9798 P.3     1  UNL1        0.2208
     26 O          24.1016   71.4828   -3.4917 O.co2   1  UNL1       -0.4371
     27 O          22.2337   71.6267   -1.6573 O.2     1  UNL1       -0.5170
     28 O          22.9916   73.7369   -3.0136 O.3     1  UNL1       -0.2858
     29 O          24.3819   74.7703   -4.6310 O.3     1  UNL1       -0.3258
     30 O          24.7329   77.5427   -1.5910 O.3     1  UNL1       -0.3794
     31 O          23.1873   78.1854   -3.9247 O.3     1  UNL1       -0.3794
     32 O          24.6402   74.7179   -0.9655 O.3     1  UNL1       -0.3775
     33 C          24.0621   76.5683   -2.3948 C.3     1  UNL1        0.1715
     34 C          24.0591   77.0613   -3.8432 C.3     1  UNL1        0.1694
     35 C          24.7993   75.2352   -2.2821 C.3     1  UNL1        0.1967
     36 C          23.5978   75.9566   -4.8033 C.3     1  UNL1        0.1761
     37 C          24.2973   74.2232   -3.3136 C.3     1  UNL1        0.2704
     38 H          24.2696   78.3914   -1.6578 H       1  UNL1        0.2105
     39 H          23.4894   78.8754   -3.3133 H       1  UNL1        0.2105
     40 H          24.9619   75.3676   -0.3219 H       1  UNL1        0.2106
     41 O          23.8406   75.2070   -7.0590 O.3     1  UNL1       -0.3794
     42 C          23.7371   76.3748   -6.2655 C.3     1  UNL1        0.1693
     43 H          23.9295   75.4577   -7.9922 H       1  UNL1        0.2105
@<TRIPOS>UNITY_ATOM_ATTR
2 1
charge -1
26 1
charge -1
@<TRIPOS>BOND
     1    25    28    1
     2    25    24    1
     3    25    26    1
     4    25    27    2
     5     1     4    1
     6     1    24    1
     7     1     2    1
     8     1     3    2
     9     6    11    1
    10     6    12    1
    11    29    36    1
    12    29    37    1
    13     7     9    1
    14     7    13    1
    15     8    10    1
    16     8    14    1
    17    28    37    1
    18     4     5    1
    19    30    33    1
    20    30    38    1
    21    31    34    1
    22    31    39    1
    23    32    35    1
    24    32    40    1
    25    41    42    1
    26    41    43    1
    27    15    19    2
    28    16    22    2
    29    17    12    1
    30    17    19   ar
    31    17    20   ar
    32    18    19   ar
    33    18    22   ar
    34    18    23    1
    35     9    10    1
    36     9    11    1
    37    10    12    1
    38    11     5    1
    39    33    34    1
    40    33    35    1
    41    34    36    1
    42    35    37    1
    43    36    42    1
    44    20    21   ar
    45    21    22   ar
@<TRIPOS>MOLECULE
*****
 43 45 0 0 0
SMALL
GASTEIGER

@<TRIPOS>ATOM
      1 P          21.8179   72.4422   -5.5063 P.3     1  UNL1        0.2189
      2 O          21.2144   73.8860   -5.0958 O.co2   1  UNL1       -0.4371
      3 O          23.0542   72.4901   -6.3551 O.2     1  UNL1       -0.5170
      4 O          20.5546   71.6614   -6.1484 O.3     1  UNL1       -0.3112
      5 C          20.2128   71.9236   -7.4983 C.3     1  UNL1        0.1811
      6 O          18.9998   69.9036   -7.0267 O.3     1  UNL1       -0.3308
      7 O          18.2875   69.8732   -9.9391 O.3     1  UNL1       -0.3794
      8 O          16.0226   70.8588   -8.7835 O.3     1  UNL1       -0.3779
      9 C          18.4350   70.9855   -9.0580 C.3     1  UNL1        0.1713
     10 C          17.2507   71.0725   -8.1181 C.3     1  UNL1        0.1895
     11 C          19.5792   70.6769   -8.1004 C.3     1  UNL1        0.1764
     12 C          17.5674   69.9805   -7.1104 C.3     1  UNL1        0.2383
     13 H          17.5626   70.0472  -10.5606 H       1  UNL1        0.2105
     14 H          15.8663   71.5796   -9.4134 H       1  UNL1        0.2106
     15 O          16.2907   68.0838   -5.4519 O.2     1  UNL1       -0.2464
     16 O          15.5776   71.1975   -2.1296 O.2     1  UNL1       -0.2670
     17 N          17.0388   70.2682   -5.8069 N.ar    1  UNL1       -0.2551
     18 N          15.9368   69.6357   -3.7989 N.ar    1  UNL1       -0.2743
     19 C          16.4156   69.2445   -5.0558 C.ar    1  UNL1        0.3323
     20 C          17.1415   71.5534   -5.2856 C.ar    1  UNL1        0.0869
     21 C          16.6786   71.9105   -4.0859 C.ar    1  UNL1        0.0795
     22 C          16.0138   70.9004   -3.2374 C.ar    1  UNL1        0.2626
     23 H          15.4985   68.9393   -3.2579 H       1  UNL1        0.1734
     24 O          22.0103   71.7094   -4.0783 O.3     1  UNL1       -0.2703
     25 P          23.1599   71.8635   -2.9524 P.3     1  UNL1        0.2208
     26 O          23.6936   73.3750   -3.1716 O.co2   1  UNL1       -0.4371
     27 O          24.2305   70.8131   -3.0182 O.2     1  UNL1       -0.5170
     28 O          22.3570   71.9137   -1.5531 O.3     1  UNL1       -0.2858
     29 O          23.9621   72.5728    0.0612 O.3     1  UNL1       -0.3258
     30 O          20.6635   72.2130    2.5190 O.3     1  UNL1       -0.3794
     31 O          21.6706   74.8232    1.8705 O.3     1  UNL1       -0.3794
     32 O          21.0748   70.3199    0.3681 O.3     1  UNL1       -0.3775
     33 C          21.3581   72.5198    1.3070 C.3     1  UNL1        0.1715
     34 C          22.3816   73.6171    1.6055 C.3     1  UNL1        0.1694
     35 C          22.0544   71.2591    0.7980 C.3     1  UNL1        0.1967
     36 C          23.3442   73.8123    0.4263 C.3     1  UNL1        0.1761
     37 C          23.0256   71.5715   -0.3419 C.3     1  UNL1        0.2704
     38 H          20.2187   73.0092    2.8473 H       1  UNL1        0.2105
     39 H          21.0660   74.6863    2.6168 H       1  UNL1        0.2105
     40 H          20.4663   70.1303    1.0986 H       1  UNL1        0.2106
     41 O          24.9829   75.3154   -0.4479 O.3     1  UNL1       -0.3794
     42 C          24.4687   74.7896    0.7618 C.3     1  UNL1        0.1693
     43 H          25.6993   75.9393   -0.2499 H       1  UNL1        0.2105
@<TRIPOS>UNITY_ATOM_ATTR
2 1
charge -1
26 1
charge -1
@<TRIPOS>BOND
     1    25    28    1
     2    25    24    1
     3    25    26    1
     4    25    27    2
     5     1     4    1
     6     1    24    1
     7     1     2    1
     8     1     3    2
     9     6    11    1
    10     6    12    1
    11    29    36    1
    12    29    37    1
    13     7     9    1
    14     7    13    1
    15     8    10    1
    16     8    14    1
    17    28    37    1
    18     4     5    1
    19    30    33    1
    20    30    38    1
    21    31    34    1
    22    31    39    1
    23    32    35    1
    24    32    40    1
    25    41    42    1
    26    41    43    1
    27    15    19    2
    28    16    22    2
    29    17    12    1
    30    17    19   ar
    31    17    20   ar
    32    18    19   ar
    33    18    22   ar
    34    18    23    1
    35     9    10    1
    36     9    11    1
    37    10    12    1
    38    11     5    1
    39    33    34    1
    40    33    35    1
    41    34    36    1
    42    35    37    1
    43    36    42    1
    44    20    21   ar
    45    21    22   ar
@<TRIPOS>MOLECULE
*****
 43 45 0 0 0
SMALL
GASTEIGER

@<TRIPOS>ATOM
      1 P          23.6027   72.7464   -3.5253 P.3     1  UNL1        0.2189
      2 O          23.9764   71.2106   -3.1801 O.co2   1  UNL1       -0.4371
      3 O          24.7138   73.5464   -4.1390 O.2     1  UNL1       -0.5170
      4 O          23.0063   73.3226   -2.1360 O.3     1  UNL1       -0.3112
      5 C          22.0300   74.3481   -2.1930 C.3     1  UNL1        0.1811
      6 O          21.1638   72.7132   -0.6598 O.3     1  UNL1       -0.3308
      7 O          19.1187   74.7739    0.0899 O.3     1  UNL1       -0.3794
      8 O          20.9135   74.9458    2.1359 O.3     1  UNL1       -0.3779
      9 C          20.4910   74.9497   -0.2585 C.3     1  UNL1        0.1713
     10 C          21.3840   74.5016    0.8797 C.3     1  UNL1        0.1895
     11 C          20.8319   73.9396   -1.3470 C.3     1  UNL1        0.1764
     12 C          21.3381   72.9895    0.7395 C.3     1  UNL1        0.2383
     13 H          18.8775   75.4086    0.7834 H       1  UNL1        0.2105
     14 H          20.9626   75.9137    2.1759 H       1  UNL1        0.2106
     15 O          21.6276   70.2132    1.1711 O.2     1  UNL1       -0.2464
     16 O          26.0217   70.6889    2.4773 O.2     1  UNL1       -0.2670
     17 N          22.5469   72.3606    1.1919 N.ar    1  UNL1       -0.2551
     18 N          23.8153   70.4523    1.8210 N.ar    1  UNL1       -0.2743
     19 C          22.5870   70.9591    1.3779 C.ar    1  UNL1        0.3323
     20 C          23.6761   73.1316    1.4459 C.ar    1  UNL1        0.0869
     21 C          24.8395   72.6331    1.8692 C.ar    1  UNL1        0.0795
     22 C          24.9655   71.1777    2.0885 C.ar    1  UNL1        0.2626
     23 H          23.8667   69.4784    1.9579 H       1  UNL1        0.1734
     24 O          22.2868   72.6006   -4.4528 O.3     1  UNL1       -0.2703
     25 P          21.9304   73.2338   -5.8967 P.3     1  UNL1        0.2208
     26 O          23.0311   72.5660   -6.8766 O.co2   1  UNL1       -0.4371
     27 O          21.9083   74.7347   -5.9220 O.2     1  UNL1       -0.5170
     28 O          20.5360   72.5372   -6.3154 O.3     1  UNL1       -0.2858
     29 O          19.6182   70.3776   -5.9832 O.3     1  UNL1       -0.3258
     30 O          18.5098   70.9676   -9.9169 O.3     1  UNL1       -0.3794
     31 O          16.5171   71.0719   -7.8513 O.3     1  UNL1       -0.3794
     32 O          21.0911   71.8931   -8.9897 O.3     1  UNL1       -0.3775
     33 C          18.7815   71.3558   -8.5675 C.3     1  UNL1        0.1715
     34 C          17.8385   70.5797   -7.6460 C.3     1  UNL1        0.1694
     35 C          20.2385   71.0349   -8.2395 C.3     1  UNL1        0.1967
     36 C          18.2456   70.7394   -6.1750 C.3     1  UNL1        0.1761
     37 C          20.5254   71.1779   -6.7437 C.3     1  UNL1        0.2704
     38 H          17.5864   71.1692  -10.1317 H       1  UNL1        0.2105
     39 H          16.2725   70.9656   -8.7841 H       1  UNL1        0.2105
     40 H          20.8999   71.7930   -9.9348 H       1  UNL1        0.2106
     41 O          16.1479   70.4502   -5.0683 O.3     1  UNL1       -0.3794
     42 C          17.4164   69.8490   -5.2522 C.3     1  UNL1        0.1693
     43 H          15.6091   69.8943   -4.4832 H       1  UNL1        0.2105
@<TRIPOS>UNITY_ATOM_ATTR
2 1
charge -1
26 1
charge -1
@<TRIPOS>BOND
     1    25    28    1
     2    25    24    1
     3    25    26    1
     4    25    27    2
     5     1     4    1
     6     1    24    1
     7     1     2    1
     8     1     3    2
     9     6    11    1
    10     6    12    1
    11    29    36    1
    12    29    37    1
    13     7     9    1
    14     7    13    1
    15     8    10    1
    16     8    14    1
    17    28    37    1
    18     4     5    1
    19    30    33    1
    20    30    38    1
    21    31    34    1
    22    31    39    1
    23    32    35    1
    24    32    40    1
    25    41    42    1
    26    41    43    1
    27    15    19    2
    28    16    22    2
    29    17    12    1
    30    17    19   ar
    31    17    20   ar
    32    18    19   ar
    33    18    22   ar
    34    18    23    1
    35     9    10    1
    36     9    11    1
    37    10    12    1
    38    11     5    1
    39    33    34    1
    40    33    35    1
    41    34    36    1
    42    35    37    1
    43    36    42    1
    44    20    21   ar
    45    21    22   ar
@<TRIPOS>MOLECULE
*****
 43 45 0 0 0
SMALL
GASTEIGER

@<TRIPOS>ATOM
      1 P          23.4227   73.4966   -4.1248 P.3     1  UNL1        0.2189
      2 O          22.5673   74.8698   -4.1108 O.co2   1  UNL1       -0.4371
      3 O          24.9109   73.6763   -4.0593 O.2     1  UNL1       -0.5170
      4 O          22.8668   72.7060   -5.4223 O.3     1  UNL1       -0.3112
      5 C          21.4766   72.4464   -5.5117 C.3     1  UNL1        0.1811
      6 O          20.4852   70.4109   -6.3164 O.3     1  UNL1       -0.3308
      7 O          20.5812   71.6611   -9.0401 O.3     1  UNL1       -0.3794
      8 O          17.9740   72.0065   -8.3190 O.3     1  UNL1       -0.3779
      9 C          20.3290   72.2715   -7.7756 C.3     1  UNL1        0.1713
     10 C          18.9384   71.9196   -7.2898 C.3     1  UNL1        0.1895
     11 C          21.2108   71.5860   -6.7394 C.3     1  UNL1        0.1764
     12 C          19.1304   70.4989   -6.7871 C.3     1  UNL1        0.2383
     13 H          20.0294   72.0826   -9.7183 H       1  UNL1        0.2105
     14 H          17.8882   72.9294   -8.6048 H       1  UNL1        0.2106
     15 O          16.4392   69.7094   -7.1217 O.2     1  UNL1       -0.2464
     16 O          15.8083   69.2806   -2.5765 O.2     1  UNL1       -0.2670
     17 N          18.2401   70.1746   -5.7084 N.ar    1  UNL1       -0.2551
     18 N          16.1273   69.4964   -4.8583 N.ar    1  UNL1       -0.2743
     19 C          16.9071   69.7904   -5.9841 C.ar    1  UNL1        0.3323
     20 C          18.6910   70.2388   -4.3945 C.ar    1  UNL1        0.0869
     21 C          17.9344   69.9564   -3.3319 C.ar    1  UNL1        0.0795
     22 C          16.5295   69.5467   -3.5330 C.ar    1  UNL1        0.2626
     23 H          15.1951   69.2267   -5.0260 H       1  UNL1        0.1734
     24 O          22.7909   72.6624   -2.8927 O.3     1  UNL1       -0.2703
     25 P          22.8971   71.0965   -2.5058 P.3     1  UNL1        0.2208
     26 O          24.4048   70.7072   -2.9450 O.co2   1  UNL1       -0.4371
     27 O          21.8313   70.2369   -3.1213 O.2     1  UNL1       -0.5170
     28 O          22.9244   71.0754   -0.8922 O.3     1  UNL1       -0.2858
     29 O          22.6349   73.2471    0.0113 O.3     1  UNL1       -0.3258
     30 O          23.6469   71.2247    3.4663 O.3     1  UNL1       -0.3794
     31 O          20.9353   72.0832    3.0684 O.3     1  UNL1       -0.3794
     32 O          24.9602   70.5682    0.9715 O.3     1  UNL1       -0.3775
     33 C          23.0433   71.3850    2.1796 C.3     1  UNL1        0.1715
     34 C          22.0265   72.5250    2.2656 C.3     1  UNL1        0.1694
     35 C          24.1294   71.7094    1.1557 C.3     1  UNL1        0.1967
     36 C          21.5330   72.9335    0.8711 C.3     1  UNL1        0.1761
     37 C          23.5314   72.1512   -0.1812 C.3     1  UNL1        0.2704
     38 H          22.9627   71.0181    4.1210 H       1  UNL1        0.2105
     39 H          21.2605   71.8278    3.9460 H       1  UNL1        0.2105
     40 H          25.3329   70.2987    1.8249 H       1  UNL1        0.2106
     41 O          20.9557   74.9074    2.0875 O.3     1  UNL1       -0.3794
     42 C          20.6394   74.1709    0.9204 C.3     1  UNL1        0.1693
     43 H          20.3948   75.6980    2.1320 H       1  UNL1        0.2105
@<TRIPOS>UNITY_ATOM_ATTR
2 1
charge -1
26 1
charge -1
@<TRIPOS>BOND
     1    25    28    1
     2    25    24    1
     3    25    26    1
     4    25    27    2
     5     1     4    1
     6     1    24    1
     7     1     2    1
     8     1     3    2
     9     6    11    1
    10     6    12    1
    11    29    36    1
    12    29    37    1
    13     7     9    1
    14     7    13    1
    15     8    10    1
    16     8    14    1
    17    28    37    1
    18     4     5    1
    19    30    33    1
    20    30    38    1
    21    31    34    1
    22    31    39    1
    23    32    35    1
    24    32    40    1
    25    41    42    1
    26    41    43    1
    27    15    19    2
    28    16    22    2
    29    17    12    1
    30    17    19   ar
    31    17    20   ar
    32    18    19   ar
    33    18    22   ar
    34    18    23    1
    35     9    10    1
    36     9    11    1
    37    10    12    1
    38    11     5    1
    39    33    34    1
    40    33    35    1
    41    34    36    1
    42    35    37    1
    43    36    42    1
    44    20    21   ar
    45    21    22   ar
@<TRIPOS>MOLECULE
*****
 43 45 0 0 0
SMALL
GASTEIGER

@<TRIPOS>ATOM
      1 P          22.9310   72.1980   -3.5989 P.3     1  UNL1        0.2189
      2 O          22.9053   70.6015   -3.3380 O.co2   1  UNL1       -0.4371
      3 O          24.2500   72.7433   -4.0620 O.2     1  UNL1       -0.5170
      4 O          22.3552   72.8257   -2.2233 O.3     1  UNL1       -0.3112
      5 C          23.1980   72.8458   -1.0844 C.3     1  UNL1        0.1811
      6 O          24.2524   71.3135    0.4368 O.3     1  UNL1       -0.3308
      7 O          21.5158   70.1766    0.8940 O.3     1  UNL1       -0.3794
      8 O          21.8779   71.7549    3.0881 O.3     1  UNL1       -0.3779
      9 C          21.9039   71.5306    0.6673 C.3     1  UNL1        0.1713
     10 C          22.5662   72.1017    1.9038 C.3     1  UNL1        0.1895
     11 C          23.0509   71.5283   -0.3356 C.3     1  UNL1        0.1764
     12 C          23.9529   71.4854    1.8317 C.3     1  UNL1        0.2383
     13 H          20.7841   70.1525    1.5312 H       1  UNL1        0.2105
     14 H          21.0017   72.1710    3.0868 H       1  UNL1        0.2106
     15 O          26.6081   70.6737    2.3502 O.2     1  UNL1       -0.2464
     16 O          27.7160   74.7868    4.1096 O.2     1  UNL1       -0.2670
     17 N          24.9564   72.3240    2.4242 N.ar    1  UNL1       -0.2551
     18 N          27.1576   72.7224    3.2257 N.ar    1  UNL1       -0.2743
     19 C          26.2595   71.8193    2.6429 C.ar    1  UNL1        0.3323
     20 C          24.6446   73.6313    2.7814 C.ar    1  UNL1        0.0869
     21 C          25.5122   74.4794    3.3374 C.ar    1  UNL1        0.0795
     22 C          26.8950   74.0308    3.5996 C.ar    1  UNL1        0.2626
     23 H          28.0713   72.3927    3.3878 H       1  UNL1        0.1734
     24 O          21.7110   72.4164   -4.6367 O.3     1  UNL1       -0.2703
     25 P          20.1108   72.4191   -4.4083 P.3     1  UNL1        0.2208
     26 O          19.7802   73.9759   -4.1172 O.co2   1  UNL1       -0.4371
     27 O          19.6401   71.4757   -3.3395 O.2     1  UNL1       -0.5170
     28 O          19.4890   72.1369   -5.8708 O.3     1  UNL1       -0.2858
     29 O          18.7017   69.9164   -6.1276 O.3     1  UNL1       -0.3258
     30 O          18.5451   71.1321  -10.0707 O.3     1  UNL1       -0.3794
     31 O          16.1057   70.7949   -8.5930 O.3     1  UNL1       -0.3794
     32 O          20.7341   71.9889   -8.3814 O.3     1  UNL1       -0.3775
     33 C          18.4446   71.2918   -8.6531 C.3     1  UNL1        0.1715
     34 C          17.3729   70.3296   -8.1368 C.3     1  UNL1        0.1694
     35 C          19.7985   70.9793   -8.0183 C.3     1  UNL1        0.1967
     36 C          17.3926   70.2490   -6.6045 C.3     1  UNL1        0.1761
     37 C          19.6973   70.8730   -6.4956 C.3     1  UNL1        0.2704
     38 H          17.6889   71.3295  -10.4799 H       1  UNL1        0.2105
     39 H          16.1068   70.8417   -9.5620 H       1  UNL1        0.2105
     40 H          20.7892   72.0461   -9.3476 H       1  UNL1        0.2106
     41 O          16.9009   68.7544   -4.8062 O.3     1  UNL1       -0.3794
     42 C          16.4400   69.1788   -6.0758 C.3     1  UNL1        0.1693
     43 H          16.3041   68.0734   -4.4573 H       1  UNL1        0.2105
@<TRIPOS>UNITY_ATOM_ATTR
2 1
charge -1
26 1
charge -1
@<TRIPOS>BOND
     1    25    28    1
     2    25    24    1
     3    25    26    1
     4    25    27    2
     5     1     4    1
     6     1    24    1
     7     1     2    1
     8     1     3    2
     9     6    11    1
    10     6    12    1
    11    29    36    1
    12    29    37    1
    13     7     9    1
    14     7    13    1
    15     8    10    1
    16     8    14    1
    17    28    37    1
    18     4     5    1
    19    30    33    1
    20    30    38    1
    21    31    34    1
    22    31    39    1
    23    32    35    1
    24    32    40    1
    25    41    42    1
    26    41    43    1
    27    15    19    2
    28    16    22    2
    29    17    12    1
    30    17    19   ar
    31    17    20   ar
    32    18    19   ar
    33    18    22   ar
    34    18    23    1
    35     9    10    1
    36     9    11    1
    37    10    12    1
    38    11     5    1
    39    33    34    1
    40    33    35    1
    41    34    36    1
    42    35    37    1
    43    36    42    1
    44    20    21   ar
    45    21    22   ar
@<TRIPOS>MOLECULE
*****
 43 45 0 0 0
SMALL
GASTEIGER

@<TRIPOS>ATOM
      1 P          23.2639   72.8621   -3.0012 P.3     1  UNL1        0.2189
      2 O          24.1712   72.3298   -4.2304 O.co2   1  UNL1       -0.4371
      3 O          23.6749   74.1913   -2.4394 O.2     1  UNL1       -0.5170
      4 O          23.2632   71.6272   -1.9558 O.3     1  UNL1       -0.3112
      5 C          23.6547   71.8748   -0.6167 C.3     1  UNL1        0.1811
      6 O          22.8951   71.6823    1.6548 O.3     1  UNL1       -0.3308
      7 O          20.2103   72.5412    0.6326 O.3     1  UNL1       -0.3794
      8 O          21.1916   74.8375    1.7282 O.3     1  UNL1       -0.3779
      9 C          21.5096   72.9592    0.2176 C.3     1  UNL1        0.1713
     10 C          22.1190   73.8847    1.2500 C.3     1  UNL1        0.1895
     11 C          22.4357   71.7513    0.2872 C.3     1  UNL1        0.1764
     12 C          22.5615   72.9081    2.3264 C.3     1  UNL1        0.2383
     13 H          19.6011   73.2959    0.5962 H       1  UNL1        0.2105
     14 H          20.9410   75.4354    1.0068 H       1  UNL1        0.2106
     15 O          22.4606   74.1652    4.8537 O.2     1  UNL1       -0.2464
     16 O          27.0415   74.6506    4.9989 O.2     1  UNL1       -0.2670
     17 N          23.7126   73.3727    3.0477 N.ar    1  UNL1       -0.2551
     18 N          24.7416   74.4057    4.9240 N.ar    1  UNL1       -0.2743
     19 C          23.5530   73.9917    4.3094 C.ar    1  UNL1        0.3323
     20 C          24.9824   73.2127    2.5038 C.ar    1  UNL1        0.0869
     21 C          26.1059   73.6142    3.1021 C.ar    1  UNL1        0.0795
     22 C          26.0268   74.2701    4.4233 C.ar    1  UNL1        0.2626
     23 H          24.6549   74.8398    5.8037 H       1  UNL1        0.1734
     24 O          21.7672   72.8230   -3.6107 O.3     1  UNL1       -0.2703
     25 P          20.6628   71.6430   -3.6384 P.3     1  UNL1        0.2208
     26 O          19.6530   72.0518   -2.4422 O.co2   1  UNL1       -0.4371
     27 O          21.2362   70.2606   -3.5196 O.2     1  UNL1       -0.5170
     28 O          19.8202   71.9038   -4.9901 O.3     1  UNL1       -0.2858
     29 O          18.6114   69.8969   -5.3477 O.3     1  UNL1       -0.3258
     30 O          17.2637   72.0661   -8.5926 O.3     1  UNL1       -0.3794
     31 O          15.5024   71.5908   -6.3744 O.3     1  UNL1       -0.3794
     32 O          20.0293   72.2755   -7.7638 O.3     1  UNL1       -0.3775
     33 C          17.7109   71.8757   -7.2475 C.3     1  UNL1        0.1715
     34 C          16.7443   70.9151   -6.5522 C.3     1  UNL1        0.1694
     35 C          19.1236   71.2951   -7.2687 C.3     1  UNL1        0.1967
     36 C          17.3001   70.4536   -5.1982 C.3     1  UNL1        0.1761
     37 C          19.5608   70.8221   -5.8812 C.3     1  UNL1        0.2704
     38 H          16.3674   72.4350   -8.5862 H       1  UNL1        0.2105
     39 H          15.1626   71.8774   -7.2367 H       1  UNL1        0.2105
     40 H          19.7418   72.5666   -8.6427 H       1  UNL1        0.2106
     41 O          15.8356   68.6070   -5.5909 O.3     1  UNL1       -0.3794
     42 C          16.4278   69.3750   -4.5595 C.3     1  UNL1        0.1693
     43 H          15.2777   67.9163   -5.1992 H       1  UNL1        0.2105
@<TRIPOS>UNITY_ATOM_ATTR
2 1
charge -1
26 1
charge -1
@<TRIPOS>BOND
     1    25    28    1
     2    25    24    1
     3    25    26    1
     4    25    27    2
     5     1     4    1
     6     1    24    1
     7     1     2    1
     8     1     3    2
     9     6    11    1
    10     6    12    1
    11    29    36    1
    12    29    37    1
    13     7     9    1
    14     7    13    1
    15     8    10    1
    16     8    14    1
    17    28    37    1
    18     4     5    1
    19    30    33    1
    20    30    38    1
    21    31    34    1
    22    31    39    1
    23    32    35    1
    24    32    40    1
    25    41    42    1
    26    41    43    1
    27    15    19    2
    28    16    22    2
    29    17    12    1
    30    17    19   ar
    31    17    20   ar
    32    18    19   ar
    33    18    22   ar
    34    18    23    1
    35     9    10    1
    36     9    11    1
    37    10    12    1
    38    11     5    1
    39    33    34    1
    40    33    35    1
    41    34    36    1
    42    35    37    1
    43    36    42    1
    44    20    21   ar
    45    21    22   ar
@<TRIPOS>MOLECULE
*****
 43 45 0 0 0
SMALL
GASTEIGER

@<TRIPOS>ATOM
      1 P          16.5848   72.7297   -1.8870 P.3     1  UNL1        0.2189
      2 O          17.5189   73.2657   -0.6797 O.co2   1  UNL1       -0.4371
      3 O          16.7842   73.4275   -3.2003 O.2     1  UNL1       -0.5170
      4 O          15.0874   72.7939   -1.2775 O.3     1  UNL1       -0.3112
      5 C          14.5678   71.6414   -0.6376 C.3     1  UNL1        0.1811
      6 O          13.3410   69.6626   -1.2316 O.3     1  UNL1       -0.3308
      7 O          11.1933   71.5135   -2.2076 O.3     1  UNL1       -0.3794
      8 O          10.2366   70.7204    0.2198 O.3     1  UNL1       -0.3779
      9 C          12.0634   71.6531   -1.0856 C.3     1  UNL1        0.1713
     10 C          11.6368   70.7216    0.0297 C.3     1  UNL1        0.1895
     11 C          13.4229   71.0844   -1.4725 C.3     1  UNL1        0.1764
     12 C          12.1615   69.3826   -0.4601 C.3     1  UNL1        0.2383
     13 H          10.3187   71.8702   -1.9846 H       1  UNL1        0.2105
     14 H           9.9517   71.5936    0.5314 H       1  UNL1        0.2106
     15 O          14.7570   68.3678   -0.0001 O.2     1  UNL1       -0.2464
     16 O          13.3762   66.0118    3.7126 O.2     1  UNL1       -0.2670
     17 N          12.5086   68.5023    0.6197 N.ar    1  UNL1       -0.2551
     18 N          14.0674   67.1957    1.8483 N.ar    1  UNL1       -0.2743
     19 C          13.8410   68.0493    0.7611 C.ar    1  UNL1        0.3323
     20 C          11.5334   68.0972    1.5245 C.ar    1  UNL1        0.0869
     21 C          11.7652   67.2817    2.5552 C.ar    1  UNL1        0.0795
     22 C          13.1310   66.7634    2.7741 C.ar    1  UNL1        0.2626
     23 H          14.9882   66.8672    1.9665 H       1  UNL1        0.1734
     24 O          16.8987   71.1442   -1.9131 O.3     1  UNL1       -0.2703
     25 P          18.1237   70.3152   -2.5652 P.3     1  UNL1        0.2208
     26 O          17.4541   68.8878   -2.9282 O.co2   1  UNL1       -0.4371
     27 O          19.3399   70.2240   -1.6899 O.2     1  UNL1       -0.5170
     28 O          18.3794   71.0206   -3.9942 O.3     1  UNL1       -0.2858
     29 O          17.7454   69.8566   -5.9588 O.3     1  UNL1       -0.3258
     30 O          20.3967   72.5536   -7.6164 O.3     1  UNL1       -0.3794
     31 O          17.5785   72.8776   -8.0646 O.3     1  UNL1       -0.3794
     32 O          20.9619   71.3746   -5.0338 O.3     1  UNL1       -0.3775
     33 C          19.3893   72.1103   -6.7032 C.3     1  UNL1        0.1715
     34 C          18.1570   71.6988   -7.5113 C.3     1  UNL1        0.1694
     35 C          19.9274   70.9259   -5.9027 C.3     1  UNL1        0.1967
     36 C          17.1365   70.9655   -6.6304 C.3     1  UNL1        0.1761
     37 C          18.8219   70.2377   -5.0999 C.3     1  UNL1        0.2704
     38 H          20.0615   73.3059   -8.1275 H       1  UNL1        0.2105
     39 H          18.2334   73.3315   -8.6181 H       1  UNL1        0.2105
     40 H          21.6556   71.8081   -5.5540 H       1  UNL1        0.2106
     41 O          16.2317   70.6442   -8.8184 O.3     1  UNL1       -0.3794
     42 C          15.9724   70.4081   -7.4468 C.3     1  UNL1        0.1693
     43 H          15.4992   70.2944   -9.3501 H       1  UNL1        0.2105
@<TRIPOS>UNITY_ATOM_ATTR
2 1
charge -1
26 1
charge -1
@<TRIPOS>BOND
     1    25    28    1
     2    25    24    1
     3    25    26    1
     4    25    27    2
     5     1     4    1
     6     1    24    1
     7     1     2    1
     8     1     3    2
     9     6    11    1
    10     6    12    1
    11    29    36    1
    12    29    37    1
    13     7     9    1
    14     7    13    1
    15     8    10    1
    16     8    14    1
    17    28    37    1
    18     4     5    1
    19    30    33    1
    20    30    38    1
    21    31    34    1
    22    31    39    1
    23    32    35    1
    24    32    40    1
    25    41    42    1
    26    41    43    1
    27    15    19    2
    28    16    22    2
    29    17    12    1
    30    17    19   ar
    31    17    20   ar
    32    18    19   ar
    33    18    22   ar
    34    18    23    1
    35     9    10    1
    36     9    11    1
    37    10    12    1
    38    11     5    1
    39    33    34    1
    40    33    35    1
    41    34    36    1
    42    35    37    1
    43    36    42    1
    44    20    21   ar
    45    21    22   ar
@<TRIPOS>MOLECULE
*****
 43 45 0 0 0
SMALL
GASTEIGER

@<TRIPOS>ATOM
      1 P          19.8190   74.4947   -2.3438 P.3     1  UNL1        0.2189
      2 O          19.5535   74.6227   -0.7530 O.co2   1  UNL1       -0.4371
      3 O          19.5104   75.7290   -3.1391 O.2     1  UNL1       -0.5170
      4 O          19.0031   73.1633   -2.7678 O.3     1  UNL1       -0.3112
      5 C          18.5375   73.0518   -4.1014 C.3     1  UNL1        0.1811
      6 O          16.7586   72.1910   -5.4683 O.3     1  UNL1       -0.3308
      7 O          15.9325   70.6009   -3.0641 O.3     1  UNL1       -0.3794
      8 O          17.2543   68.7536   -4.5730 O.3     1  UNL1       -0.3779
      9 C          17.2429   70.9419   -3.5135 C.3     1  UNL1        0.1713
     10 C          17.6166   70.1111   -4.7234 C.3     1  UNL1        0.1895
     11 C          17.1874   72.3479   -4.0979 C.3     1  UNL1        0.1764
     12 C          16.8424   70.8034   -5.8323 C.3     1  UNL1        0.2383
     13 H          15.9429   69.7069   -2.6864 H       1  UNL1        0.2105
     14 H          17.7740   68.3577   -3.8561 H       1  UNL1        0.2106
     15 O          15.4919   70.6010   -8.3047 O.2     1  UNL1       -0.2464
     16 O          19.4494   70.3878  -10.6572 O.2     1  UNL1       -0.2670
     17 N          17.4951   70.6942   -7.1065 N.ar    1  UNL1       -0.2551
     18 N          17.4635   70.4952   -9.4741 N.ar    1  UNL1       -0.2743
     19 C          16.7246   70.5969   -8.2885 C.ar    1  UNL1        0.3323
     20 C          18.8840   70.6847   -7.1751 C.ar    1  UNL1        0.0869
     21 C          19.5735   70.5858   -8.3135 C.ar    1  UNL1        0.0795
     22 C          18.8442   70.4801   -9.5937 C.ar    1  UNL1        0.2626
     23 H          16.9479   70.4259  -10.3103 H       1  UNL1        0.1734
     24 O          21.3608   74.0149   -2.4175 O.3     1  UNL1       -0.2703
     25 P          22.0661   72.6345   -1.9589 P.3     1  UNL1        0.2208
     26 O          23.5994   72.8240   -2.4390 O.co2   1  UNL1       -0.4371
     27 O          21.3998   71.3977   -2.4882 O.2     1  UNL1       -0.5170
     28 O          22.1291   72.7233   -0.3486 O.3     1  UNL1       -0.2858
     29 O          23.0695   74.2387    1.2122 O.3     1  UNL1       -0.3258
     30 O          24.2466   70.6839    2.9524 O.3     1  UNL1       -0.3794
     31 O          22.1595   72.2359    4.1702 O.3     1  UNL1       -0.3794
     32 O          24.2700   70.9582    0.0708 O.3     1  UNL1       -0.3775
     33 C          23.3731   71.5523    2.2258 C.3     1  UNL1        0.1715
     34 C          23.0026   72.7279    3.1322 C.3     1  UNL1        0.1694
     35 C          24.0907   72.0463    0.9710 C.3     1  UNL1        0.1967
     36 C          22.2885   73.8329    2.3423 C.3     1  UNL1        0.1761
     37 C          23.3204   73.1778    0.2882 C.3     1  UNL1        0.2704
     38 H          23.7968   70.3663    3.7501 H       1  UNL1        0.2105
     39 H          22.6220   71.5385    4.6609 H       1  UNL1        0.2105
     40 H          24.7592   70.2486    0.5148 H       1  UNL1        0.2106
     41 O          23.0789   75.1670    4.1601 O.3     1  UNL1       -0.3794
     42 C          22.0506   75.0800    3.1909 C.3     1  UNL1        0.1693
     43 H          22.9405   75.9563    4.7075 H       1  UNL1        0.2105
@<TRIPOS>UNITY_ATOM_ATTR
2 1
charge -1
26 1
charge -1
@<TRIPOS>BOND
     1    25    28    1
     2    25    24    1
     3    25    26    1
     4    25    27    2
     5     1     4    1
     6     1    24    1
     7     1     2    1
     8     1     3    2
     9     6    11    1
    10     6    12    1
    11    29    36    1
    12    29    37    1
    13     7     9    1
    14     7    13    1
    15     8    10    1
    16     8    14    1
    17    28    37    1
    18     4     5    1
    19    30    33    1
    20    30    38    1
    21    31    34    1
    22    31    39    1
    23    32    35    1
    24    32    40    1
    25    41    42    1
    26    41    43    1
    27    15    19    2
    28    16    22    2
    29    17    12    1
    30    17    19   ar
    31    17    20   ar
    32    18    19   ar
    33    18    22   ar
    34    18    23    1
    35     9    10    1
    36     9    11    1
    37    10    12    1
    38    11     5    1
    39    33    34    1
    40    33    35    1
    41    34    36    1
    42    35    37    1
    43    36    42    1
    44    20    21   ar
    45    21    22   ar
@<TRIPOS>MOLECULE
*****
 43 45 0 0 0
SMALL
GASTEIGER

@<TRIPOS>ATOM
      1 P          19.6491   70.7806   -2.6908 P.3     1  UNL1        0.2189
      2 O          20.6848   69.9604   -3.6246 O.co2   1  UNL1       -0.4371
      3 O          19.5226   72.2402   -3.0151 O.2     1  UNL1       -0.5170
      4 O          20.1267   70.4345   -1.1841 O.3     1  UNL1       -0.3112
      5 C          21.2078   71.1658   -0.6327 C.3     1  UNL1        0.1811
      6 O          21.5942   71.5378    1.7095 O.3     1  UNL1       -0.3308
      7 O          19.8869   73.9847    1.4112 O.3     1  UNL1       -0.3794
      8 O          22.4117   75.0149    1.3868 O.3     1  UNL1       -0.3779
      9 C          20.8156   73.4148    0.4903 C.3     1  UNL1        0.1713
     10 C          22.2360   73.6857    0.9406 C.3     1  UNL1        0.1895
     11 C          20.7270   71.8987    0.6122 C.3     1  UNL1        0.1764
     12 C          22.4134   72.6671    2.0537 C.3     1  UNL1        0.2383
     13 H          19.9251   74.9526    1.3514 H       1  UNL1        0.2105
     14 H          22.2889   75.6248    0.6426 H       1  UNL1        0.2106
     15 O          23.3629   70.1296    1.2553 O.2     1  UNL1       -0.2464
     16 O          27.6578   71.1071    2.6116 O.2     1  UNL1       -0.2670
     17 N          23.7752   72.2321    2.1863 N.ar    1  UNL1       -0.2551
     18 N          25.5007   70.6184    1.9312 N.ar    1  UNL1       -0.2743
     19 C          24.1483   70.9377    1.7551 C.ar    1  UNL1        0.3323
     20 C          24.7246   73.0852    2.7383 C.ar    1  UNL1        0.0869
     21 C          26.0101   72.7651    2.9004 C.ar    1  UNL1        0.0795
     22 C          26.4822   71.4314    2.4758 C.ar    1  UNL1        0.2626
     23 H          25.7836   69.7218    1.6384 H       1  UNL1        0.1734
     24 O          18.2784   69.9370   -2.8403 O.3     1  UNL1       -0.2703
     25 P          17.0295   70.1114   -3.8517 P.3     1  UNL1        0.2208
     26 O          16.6103   71.6621   -3.6596 O.co2   1  UNL1       -0.4371
     27 O          15.9121   69.1350   -3.6237 O.2     1  UNL1       -0.5170
     28 O          17.6849   70.0458   -5.3252 O.3     1  UNL1       -0.2858
     29 O          19.0233   71.7561   -6.2738 O.3     1  UNL1       -0.3258
     30 O          17.4750   70.1311   -9.7398 O.3     1  UNL1       -0.3794
     31 O          20.2320   69.6829   -9.0719 O.3     1  UNL1       -0.3794
     32 O          15.8072   70.3681   -7.3857 O.3     1  UNL1       -0.3775
     33 C          17.9761   70.1079   -8.4005 C.3     1  UNL1        0.1715
     34 C          19.4093   70.6432   -8.4153 C.3     1  UNL1        0.1694
     35 C          17.0851   70.9812   -7.5190 C.3     1  UNL1        0.1967
     36 C          19.9197   70.8994   -6.9909 C.3     1  UNL1        0.1761
     37 C          17.7078   71.2140   -6.1413 C.3     1  UNL1        0.2704
     38 H          18.0361   69.5781  -10.3046 H       1  UNL1        0.2105
     39 H          19.8987   69.5298   -9.9701 H       1  UNL1        0.2105
     40 H          15.4235   70.2264   -8.2646 H       1  UNL1        0.2106
     41 O          21.5056   72.1556   -8.2620 O.3     1  UNL1       -0.3794
     42 C          21.2865   71.5805   -6.9870 C.3     1  UNL1        0.1693
     43 H          22.3718   72.5929   -8.2742 H       1  UNL1        0.2105
@<TRIPOS>UNITY_ATOM_ATTR
2 1
charge -1
26 1
charge -1
@<TRIPOS>BOND
     1    25    28    1
     2    25    24    1
     3    25    26    1
     4    25    27    2
     5     1     4    1
     6     1    24    1
     7     1     2    1
     8     1     3    2
     9     6    11    1
    10     6    12    1
    11    29    36    1
    12    29    37    1
    13     7     9    1
    14     7    13    1
    15     8    10    1
    16     8    14    1
    17    28    37    1
    18     4     5    1
    19    30    33    1
    20    30    38    1
    21    31    34    1
    22    31    39    1
    23    32    35    1
    24    32    40    1
    25    41    42    1
    26    41    43    1
    27    15    19    2
    28    16    22    2
    29    17    12    1
    30    17    19   ar
    31    17    20   ar
    32    18    19   ar
    33    18    22   ar
    34    18    23    1
    35     9    10    1
    36     9    11    1
    37    10    12    1
    38    11     5    1
    39    33    34    1
    40    33    35    1
    41    34    36    1
    42    35    37    1
    43    36    42    1
    44    20    21   ar
    45    21    22   ar
@<TRIPOS>MOLECULE
*****
 43 45 0 0 0
SMALL
GASTEIGER

@<TRIPOS>ATOM
      1 P          20.7853   74.0522   -1.2773 P.3     1  UNL1        0.2189
      2 O          22.1485   73.8999   -2.1351 O.co2   1  UNL1       -0.4371
      3 O          19.8043   75.0504   -1.8182 O.2     1  UNL1       -0.5170
      4 O          21.3039   74.3231    0.2312 O.3     1  UNL1       -0.3112
      5 C          20.4576   75.0312    1.1201 C.3     1  UNL1        0.1811
      6 O          20.3624   72.7366    1.8266 O.3     1  UNL1       -0.3308
      7 O          18.9760   73.7465    4.2860 O.3     1  UNL1       -0.3794
      8 O          21.5262   73.3441    5.1642 O.3     1  UNL1       -0.3779
      9 C          20.0283   74.3470    3.5327 C.3     1  UNL1        0.1713
     10 C          21.3367   73.6304    3.7935 C.3     1  UNL1        0.1895
     11 C          19.7855   74.0400    2.0602 C.3     1  UNL1        0.1764
     12 C          21.1826   72.3761    2.9501 C.3     1  UNL1        0.2383
     13 H          19.1093   73.9293    5.2299 H       1  UNL1        0.2105
     14 H          21.6189   74.1737    5.6581 H       1  UNL1        0.2106
     15 O          21.4667   70.2168    1.1516 O.2     1  UNL1       -0.2464
     16 O          26.0623   70.5650    1.1732 O.2     1  UNL1       -0.2670
     17 N          22.4417   71.8817    2.4687 N.ar    1  UNL1       -0.2551
     18 N          23.7547   70.3921    1.1637 N.ar    1  UNL1       -0.2743
     19 C          22.4746   70.7914    1.5684 C.ar    1  UNL1        0.3323
     20 C          23.6262   72.4767    2.8890 C.ar    1  UNL1        0.0869
     21 C          24.8390   72.0831    2.4947 C.ar    1  UNL1        0.0795
     22 C          24.9615   70.9506    1.5543 C.ar    1  UNL1        0.2626
     23 H          23.8024   69.6341    0.5368 H       1  UNL1        0.1734
     24 O          20.2307   72.5356   -1.2040 O.3     1  UNL1       -0.2703
     25 P          20.4773   71.2670   -2.1749 P.3     1  UNL1        0.2208
     26 O          19.3042   70.2384   -1.7467 O.co2   1  UNL1       -0.4371
     27 O          21.8626   70.6933   -2.0979 O.2     1  UNL1       -0.5170
     28 O          20.0489   71.7860   -3.6419 O.3     1  UNL1       -0.2858
     29 O          18.9601   70.4339   -5.2552 O.3     1  UNL1       -0.3258
     30 O          20.8632   73.0812   -7.7891 O.3     1  UNL1       -0.3794
     31 O          18.0186   73.2545   -7.4339 O.3     1  UNL1       -0.3794
     32 O          22.2060   72.1510   -5.3994 O.3     1  UNL1       -0.3775
     33 C          20.1838   72.6786   -6.5968 C.3     1  UNL1        0.1715
     34 C          18.8017   72.1512   -6.9871 C.3     1  UNL1        0.1694
     35 C          20.9985   71.5891   -5.9019 C.3     1  UNL1        0.1967
     36 C          18.1187   71.4564   -5.8014 C.3     1  UNL1        0.1761
     37 C          20.2093   70.9293   -4.7696 C.3     1  UNL1        0.2704
     38 H          20.3514   73.7732   -8.2349 H       1  UNL1        0.2105
     39 H          18.4611   73.6847   -8.1824 H       1  UNL1        0.2105
     40 H          22.6965   72.5653   -6.1258 H       1  UNL1        0.2106
     41 O          17.1128   69.6209   -6.9537 O.3     1  UNL1       -0.3794
     42 C          16.8087   70.7857   -6.2088 C.3     1  UNL1        0.1693
     43 H          16.2884   69.1834   -7.2196 H       1  UNL1        0.2105
@<TRIPOS>UNITY_ATOM_ATTR
2 1
charge -1
26 1
charge -1
@<TRIPOS>BOND
     1    25    28    1
     2    25    24    1
     3    25    26    1
     4    25    27    2
     5     1     4    1
     6     1    24    1
     7     1     2    1
     8     1     3    2
     9     6    11    1
    10     6    12    1
    11    29    36    1
    12    29    37    1
    13     7     9    1
    14     7    13    1
    15     8    10    1
    16     8    14    1
    17    28    37    1
    18     4     5    1
    19    30    33    1
    20    30    38    1
    21    31    34    1
    22    31    39    1
    23    32    35    1
    24    32    40    1
    25    41    42    1
    26    41    43    1
    27    15    19    2
    28    16    22    2
    29    17    12    1
    30    17    19   ar
    31    17    20   ar
    32    18    19   ar
    33    18    22   ar
    34    18    23    1
    35     9    10    1
    36     9    11    1
    37    10    12    1
    38    11     5    1
    39    33    34    1
    40    33    35    1
    41    34    36    1
    42    35    37    1
    43    36    42    1
    44    20    21   ar
    45    21    22   ar
@<TRIPOS>MOLECULE
*****
 43 45 0 0 0
SMALL
GASTEIGER

@<TRIPOS>ATOM
      1 P          23.7497   72.6219   -3.8451 P.3     1  UNL1        0.2189
      2 O          24.8630   73.7891   -3.7198 O.co2   1  UNL1       -0.4371
      3 O          24.1970   71.2669   -3.3811 O.2     1  UNL1       -0.5170
      4 O          23.2642   72.7120   -5.3859 O.3     1  UNL1       -0.3112
      5 C          22.0809   72.0297   -5.7630 C.3     1  UNL1        0.1811
      6 O          20.3715   71.9599   -7.4503 O.3     1  UNL1       -0.3308
      7 O          20.5692   74.9513   -7.5088 O.3     1  UNL1       -0.3794
      8 O          18.3363   74.5325   -6.0004 O.3     1  UNL1       -0.3779
      9 C          20.6876   74.0608   -6.4005 C.3     1  UNL1        0.1713
     10 C          19.3264   73.5244   -6.0092 C.3     1  UNL1        0.1895
     11 C          21.3985   72.8026   -6.8832 C.3     1  UNL1        0.1764
     12 C          19.0820   72.4742   -7.0795 C.3     1  UNL1        0.2383
     13 H          20.1185   75.7625   -7.2248 H       1  UNL1        0.2105
     14 H          18.5361   75.1761   -5.3028 H       1  UNL1        0.2106
     15 O          19.1395   71.4639   -4.4425 O.2     1  UNL1       -0.2464
     16 O          15.9080   68.3152   -5.3831 O.2     1  UNL1       -0.2670
     17 N          18.2660   71.3911   -6.6078 N.ar    1  UNL1       -0.2551
     18 N          17.5303   69.8970   -4.9129 N.ar    1  UNL1       -0.2743
     19 C          18.3724   70.9594   -5.2652 C.ar    1  UNL1        0.3323
     20 C          17.3723   70.7692   -7.4729 C.ar    1  UNL1        0.0869
     21 C          16.5771   69.7565   -7.1217 C.ar    1  UNL1        0.0795
     22 C          16.6264   69.2451   -5.7367 C.ar    1  UNL1        0.2626
     23 H          17.5874   69.5792   -3.9826 H       1  UNL1        0.1734
     24 O          22.4921   73.2303   -3.0318 O.3     1  UNL1       -0.2703
     25 P          21.6537   72.6444   -1.7802 P.3     1  UNL1        0.2208
     26 O          21.2539   71.1540   -2.2665 O.co2   1  UNL1       -0.4371
     27 O          20.4872   73.4952   -1.3686 O.2     1  UNL1       -0.5170
     28 O          22.7548   72.4139   -0.6228 O.3     1  UNL1       -0.2858
     29 O          23.9953   70.9185    0.7341 O.3     1  UNL1       -0.3258
     30 O          21.0794   72.0071    3.4475 O.3     1  UNL1       -0.3794
     31 O          23.7574   72.9923    3.7724 O.3     1  UNL1       -0.3794
     32 O          20.3891   71.6226    0.6627 O.3     1  UNL1       -0.3775
     33 C          21.9908   72.2076    2.3638 C.3     1  UNL1        0.1715
     34 C          23.4086   71.9426    2.8743 C.3     1  UNL1        0.1694
     35 C          21.6386   71.2453    1.2309 C.3     1  UNL1        0.1967
     36 C          24.4115   71.8761    1.7146 C.3     1  UNL1        0.1761
     37 C          22.7246   71.2193    0.1538 C.3     1  UNL1        0.2704
     38 H          21.2972   72.6155    4.1700 H       1  UNL1        0.2105
     39 H          23.1161   73.0238    4.4996 H       1  UNL1        0.2105
     40 H          19.7101   71.6350    1.3545 H       1  UNL1        0.2106
     41 O          26.4273   72.5737    2.7911 O.3     1  UNL1       -0.3794
     42 C          25.8027   71.4571    2.1849 C.3     1  UNL1        0.1693
     43 H          27.3136   72.3218    3.0957 H       1  UNL1        0.2105
@<TRIPOS>UNITY_ATOM_ATTR
2 1
charge -1
26 1
charge -1
@<TRIPOS>BOND
     1    25    28    1
     2    25    24    1
     3    25    26    1
     4    25    27    2
     5     1     4    1
     6     1    24    1
     7     1     2    1
     8     1     3    2
     9     6    11    1
    10     6    12    1
    11    29    36    1
    12    29    37    1
    13     7     9    1
    14     7    13    1
    15     8    10    1
    16     8    14    1
    17    28    37    1
    18     4     5    1
    19    30    33    1
    20    30    38    1
    21    31    34    1
    22    31    39    1
    23    32    35    1
    24    32    40    1
    25    41    42    1
    26    41    43    1
    27    15    19    2
    28    16    22    2
    29    17    12    1
    30    17    19   ar
    31    17    20   ar
    32    18    19   ar
    33    18    22   ar
    34    18    23    1
    35     9    10    1
    36     9    11    1
    37    10    12    1
    38    11     5    1
    39    33    34    1
    40    33    35    1
    41    34    36    1
    42    35    37    1
    43    36    42    1
    44    20    21   ar
    45    21    22   ar
@<TRIPOS>MOLECULE
*****
 43 45 0 0 0
SMALL
GASTEIGER

@<TRIPOS>ATOM
      1 P          19.8578   71.7761   -1.6330 P.3     1  UNL1        0.2189
      2 O          18.6080   72.7766   -1.3995 O.co2   1  UNL1       -0.4371
      3 O          19.5449   70.3192   -1.4571 O.2     1  UNL1       -0.5170
      4 O          21.0144   72.3678   -0.6686 O.3     1  UNL1       -0.3112
      5 C          21.5247   71.5397    0.3618 C.3     1  UNL1        0.1811
      6 O          22.2375   71.7651    2.6454 O.3     1  UNL1       -0.3308
      7 O          20.4783   74.1906    2.7590 O.3     1  UNL1       -0.3794
      8 O          22.9621   75.2720    2.4466 O.3     1  UNL1       -0.3779
      9 C          21.2721   73.7016    1.6792 C.3     1  UNL1        0.1713
     10 C          22.7392   73.9716    1.9408 C.3     1  UNL1        0.1895
     11 C          21.2185   72.1793    1.7092 C.3     1  UNL1        0.1764
     12 C          23.0850   72.8860    2.9458 C.3     1  UNL1        0.2383
     13 H          20.4969   75.1610    2.7602 H       1  UNL1        0.2105
     14 H          22.7275   75.9267    1.7706 H       1  UNL1        0.2106
     15 O          23.9287   70.3577    2.0110 O.2     1  UNL1       -0.2464
     16 O          28.3728   71.4049    2.6389 O.2     1  UNL1       -0.2670
     17 N          24.4565   72.4715    2.8540 N.ar    1  UNL1       -0.2551
     18 N          26.1409   70.8812    2.3242 N.ar    1  UNL1       -0.2743
     19 C          24.7732   71.1800    2.3719 C.ar    1  UNL1        0.3323
     20 C          25.4707   73.3414    3.2393 C.ar    1  UNL1        0.0869
     21 C          26.7701   73.0408    3.1889 C.ar    1  UNL1        0.0795
     22 C          27.1861   71.7114    2.6971 C.ar    1  UNL1        0.2626
     23 H          26.3853   69.9870    1.9920 H       1  UNL1        0.1734
     24 O          20.3752   72.1794   -3.1104 O.3     1  UNL1       -0.2703
     25 P          20.8485   71.2643   -4.3559 P.3     1  UNL1        0.2208
     26 O          21.1418   69.8282   -3.6709 O.co2   1  UNL1       -0.4371
     27 O          22.0044   71.8288   -5.1300 O.2     1  UNL1       -0.5170
     28 O          19.5089   71.0347   -5.2265 O.3     1  UNL1       -0.2858
     29 O          19.0906   71.5879   -7.4926 O.3     1  UNL1       -0.3258
     30 O          15.3232   72.2624   -5.9426 O.3     1  UNL1       -0.3794
     31 O          15.7838   69.9623   -7.5995 O.3     1  UNL1       -0.3794
     32 O          17.6675   72.9873   -4.4069 O.3     1  UNL1       -0.3775
     33 C          16.5870   71.6023   -6.0548 C.3     1  UNL1        0.1715
     34 C          16.7093   71.0382   -7.4717 C.3     1  UNL1        0.1694
     35 C          17.7022   72.6090   -5.7788 C.3     1  UNL1        0.1967
     36 C          18.1371   70.5511   -7.7527 C.3     1  UNL1        0.1761
     37 C          19.0768   72.0417   -6.1377 C.3     1  UNL1        0.2704
     38 H          14.6108   71.6286   -6.1162 H       1  UNL1        0.2105
     39 H          14.8862   70.2831   -7.4191 H       1  UNL1        0.2105
     40 H          16.7924   73.3451   -4.1923 H       1  UNL1        0.2106
     41 O          18.1737   71.2747  -10.0296 O.3     1  UNL1       -0.3794
     42 C          18.3217   70.1305   -9.2091 C.3     1  UNL1        0.1693
     43 H          18.2889   71.0222  -10.9594 H       1  UNL1        0.2105
@<TRIPOS>UNITY_ATOM_ATTR
2 1
charge -1
26 1
charge -1
@<TRIPOS>BOND
     1    25    28    1
     2    25    24    1
     3    25    26    1
     4    25    27    2
     5     1     4    1
     6     1    24    1
     7     1     2    1
     8     1     3    2
     9     6    11    1
    10     6    12    1
    11    29    36    1
    12    29    37    1
    13     7     9    1
    14     7    13    1
    15     8    10    1
    16     8    14    1
    17    28    37    1
    18     4     5    1
    19    30    33    1
    20    30    38    1
    21    31    34    1
    22    31    39    1
    23    32    35    1
    24    32    40    1
    25    41    42    1
    26    41    43    1
    27    15    19    2
    28    16    22    2
    29    17    12    1
    30    17    19   ar
    31    17    20   ar
    32    18    19   ar
    33    18    22   ar
    34    18    23    1
    35     9    10    1
    36     9    11    1
    37    10    12    1
    38    11     5    1
    39    33    34    1
    40    33    35    1
    41    34    36    1
    42    35    37    1
    43    36    42    1
    44    20    21   ar
    45    21    22   ar
@<TRIPOS>MOLECULE
*****
 43 45 0 0 0
SMALL
GASTEIGER

@<TRIPOS>ATOM
      1 P          21.8696   72.4810   -5.6216 P.3     1  UNL1        0.2189
      2 O          21.2958   73.9796   -5.4158 O.co2   1  UNL1       -0.4371
      3 O          23.1283   72.3902   -6.4334 O.2     1  UNL1       -0.5170
      4 O          20.6022   71.6552   -6.1956 O.3     1  UNL1       -0.3112
      5 C          20.0645   72.0291   -7.4521 C.3     1  UNL1        0.1811
      6 O          18.8590   69.9866   -7.0666 O.3     1  UNL1       -0.3308
      7 O          18.1500   70.0748   -9.9787 O.3     1  UNL1       -0.3794
      8 O          15.8800   71.0026   -8.7859 O.3     1  UNL1       -0.3779
      9 C          18.2922   71.1499   -9.0519 C.3     1  UNL1        0.1713
     10 C          17.1066   71.1931   -8.1106 C.3     1  UNL1        0.1895
     11 C          19.4365   70.8061   -8.1064 C.3     1  UNL1        0.1764
     12 C          17.4264   70.0613   -7.1489 C.3     1  UNL1        0.2383
     13 H          17.4251   70.2717  -10.5933 H       1  UNL1        0.2105
     14 H          15.7216   71.7484   -9.3855 H       1  UNL1        0.2106
     15 O          16.3560   68.0468   -5.4833 O.2     1  UNL1       -0.2464
     16 O          15.4159   71.0642   -2.1288 O.2     1  UNL1       -0.2670
     17 N          16.8953   70.2924   -5.8352 N.ar    1  UNL1       -0.2551
     18 N          15.8889   69.5509   -3.8143 N.ar    1  UNL1       -0.2743
     19 C          16.3807   69.2119   -5.0813 C.ar    1  UNL1        0.3323
     20 C          16.8885   71.5787   -5.3068 C.ar    1  UNL1        0.0869
     21 C          16.4147   71.8855   -4.0974 C.ar    1  UNL1        0.0795
     22 C          15.8591   70.8143   -3.2455 C.ar    1  UNL1        0.2626
     23 H          15.5251   68.8144   -3.2713 H       1  UNL1        0.1734
     24 O          22.0049   71.9325   -4.1070 O.3     1  UNL1       -0.2703
     25 P          23.2314   72.0068   -3.0567 P.3     1  UNL1        0.2208
     26 O          23.9050   73.4432   -3.3738 O.co2   1  UNL1       -0.4371
     27 O          24.1808   70.8465   -3.1362 O.2     1  UNL1       -0.5170
     28 O          22.5258   72.1963   -1.6175 O.3     1  UNL1       -0.2858
     29 O          23.4640   70.6572   -0.0788 O.3     1  UNL1       -0.3258
     30 O          20.4635   72.2148    2.2923 O.3     1  UNL1       -0.3794
     31 O          23.1973   72.9200    2.8190 O.3     1  UNL1       -0.3794
     32 O          19.9817   71.7442   -0.5230 O.3     1  UNL1       -0.3775
     33 C          21.4836   72.2506    1.2906 C.3     1  UNL1        0.1715
     34 C          22.8116   71.8634    1.9443 C.3     1  UNL1        0.1694
     35 C          21.1253   71.2673    0.1778 C.3     1  UNL1        0.1967
     36 C          23.8985   71.6199    0.8887 C.3     1  UNL1        0.1761
     37 C          22.2918   71.0599   -0.7899 C.3     1  UNL1        0.2704
     38 H          20.6848   72.8373    3.0016 H       1  UNL1        0.2105
     39 H          22.5022   73.0639    3.4804 H       1  UNL1        0.2105
     40 H          19.2502   71.8712    0.1005 H       1  UNL1        0.2106
     41 O          24.8458   70.2620    2.6114 O.3     1  UNL1       -0.3794
     42 C          25.1862   71.0805    1.5076 C.3     1  UNL1        0.1693
     43 H          25.6556   69.9114    3.0151 H       1  UNL1        0.2105
@<TRIPOS>UNITY_ATOM_ATTR
2 1
charge -1
26 1
charge -1
@<TRIPOS>BOND
     1    25    28    1
     2    25    24    1
     3    25    26    1
     4    25    27    2
     5     1     4    1
     6     1    24    1
     7     1     2    1
     8     1     3    2
     9     6    11    1
    10     6    12    1
    11    29    36    1
    12    29    37    1
    13     7     9    1
    14     7    13    1
    15     8    10    1
    16     8    14    1
    17    28    37    1
    18     4     5    1
    19    30    33    1
    20    30    38    1
    21    31    34    1
    22    31    39    1
    23    32    35    1
    24    32    40    1
    25    41    42    1
    26    41    43    1
    27    15    19    2
    28    16    22    2
    29    17    12    1
    30    17    19   ar
    31    17    20   ar
    32    18    19   ar
    33    18    22   ar
    34    18    23    1
    35     9    10    1
    36     9    11    1
    37    10    12    1
    38    11     5    1
    39    33    34    1
    40    33    35    1
    41    34    36    1
    42    35    37    1
    43    36    42    1
    44    20    21   ar
    45    21    22   ar
@<TRIPOS>MOLECULE
*****
 43 45 0 0 0
SMALL
GASTEIGER

@<TRIPOS>ATOM
      1 P          23.5474   72.0915   -3.5750 P.3     1  UNL1        0.2189
      2 O          24.3256   70.7759   -3.0450 O.co2   1  UNL1       -0.4371
      3 O          24.4226   73.1345   -4.2057 O.2     1  UNL1       -0.5170
      4 O          22.6878   72.5771   -2.2932 O.3     1  UNL1       -0.3112
      5 C          23.3388   72.6687   -1.0379 C.3     1  UNL1        0.1811
      6 O          24.3283   71.0467    0.4330 O.3     1  UNL1       -0.3308
      7 O          21.5257   70.1981    1.0781 O.3     1  UNL1       -0.3794
      8 O          22.1870   71.7454    3.2240 O.3     1  UNL1       -0.3779
      9 C          22.0337   71.5039    0.8096 C.3     1  UNL1        0.1713
     10 C          22.8290   72.0125    1.9939 C.3     1  UNL1        0.1895
     11 C          23.1074   71.3780   -0.2641 C.3     1  UNL1        0.1764
     12 C          24.1385   71.2573    1.8417 C.3     1  UNL1        0.2383
     13 H          20.8380   70.2530    1.7608 H       1  UNL1        0.2105
     14 H          21.3594   72.2488    3.2729 H       1  UNL1        0.2106
     15 O          24.1070   74.0250    2.4043 O.2     1  UNL1       -0.2464
     16 O          28.4930   73.9734    3.8192 O.2     1  UNL1       -0.2670
     17 N          25.2581   71.9928    2.3583 N.ar    1  UNL1       -0.2551
     18 N          26.2909   73.9970    3.1085 N.ar    1  UNL1       -0.2743
     19 C          25.1383   73.3802    2.6054 C.ar    1  UNL1        0.3323
     20 C          26.4581   71.3386    2.6148 C.ar    1  UNL1        0.0869
     21 C          27.5484   71.9415    3.0934 C.ar    1  UNL1        0.0795
     22 C          27.5072   73.3902    3.3787 C.ar    1  UNL1        0.2626
     23 H          26.2310   74.9635    3.2879 H       1  UNL1        0.1734
     24 O          22.4200   71.4762   -4.5565 O.3     1  UNL1       -0.2703
     25 P          21.1515   72.1678   -5.2814 P.3     1  UNL1        0.2208
     26 O          21.5250   72.0730   -6.8527 O.co2   1  UNL1       -0.4371
     27 O          20.8495   73.5572   -4.7994 O.2     1  UNL1       -0.5170
     28 O          19.9444   71.1145   -5.0850 O.3     1  UNL1       -0.2858
     29 O          17.6709   71.6535   -5.4813 O.3     1  UNL1       -0.3258
     30 O          17.1594   68.6190   -2.7280 O.3     1  UNL1       -0.3794
     31 O          16.5225   68.1506   -5.4890 O.3     1  UNL1       -0.3794
     32 O          19.3366   70.5008   -2.4150 O.3     1  UNL1       -0.3775
     33 C          17.7913   69.2974   -3.8169 C.3     1  UNL1        0.1715
     34 C          16.7707   69.4449   -4.9471 C.3     1  UNL1        0.1694
     35 C          18.2687   70.6683   -3.3413 C.3     1  UNL1        0.1967
     36 C          17.2866   70.3915   -6.0394 C.3     1  UNL1        0.1761
     37 C          18.7143   71.5482   -4.5107 C.3     1  UNL1        0.2704
     38 H          16.8544   67.7476   -3.0232 H       1  UNL1        0.2105
     39 H          16.1977   67.5626   -4.7890 H       1  UNL1        0.2105
     40 H          19.0419   69.9423   -1.6795 H       1  UNL1        0.2106
     41 O          16.7369   70.3028   -8.3629 O.3     1  UNL1       -0.3794
     42 C          16.2234   70.6769   -7.0977 C.3     1  UNL1        0.1693
     43 H          16.0708   70.4786   -9.0464 H       1  UNL1        0.2105
@<TRIPOS>UNITY_ATOM_ATTR
2 1
charge -1
26 1
charge -1
@<TRIPOS>BOND
     1    25    28    1
     2    25    24    1
     3    25    26    1
     4    25    27    2
     5     1     4    1
     6     1    24    1
     7     1     2    1
     8     1     3    2
     9     6    11    1
    10     6    12    1
    11    29    36    1
    12    29    37    1
    13     7     9    1
    14     7    13    1
    15     8    10    1
    16     8    14    1
    17    28    37    1
    18     4     5    1
    19    30    33    1
    20    30    38    1
    21    31    34    1
    22    31    39    1
    23    32    35    1
    24    32    40    1
    25    41    42    1
    26    41    43    1
    27    15    19    2
    28    16    22    2
    29    17    12    1
    30    17    19   ar
    31    17    20   ar
    32    18    19   ar
    33    18    22   ar
    34    18    23    1
    35     9    10    1
    36     9    11    1
    37    10    12    1
    38    11     5    1
    39    33    34    1
    40    33    35    1
    41    34    36    1
    42    35    37    1
    43    36    42    1
    44    20    21   ar
    45    21    22   ar
