@<TRIPOS>MOLECULE
*****
 43 45 0 0 0
SMALL
GASTEIGER

@<TRIPOS>ATOM
      1 P          22.6043   71.3668   -2.5377 P.3     1  UNL1        0.2189
      2 O          22.0390   72.5658   -3.4652 O.co2   1  UNL1       -0.4371
      3 O          23.9960   70.9130   -2.8671 O.2     1  UNL1       -0.5170
      4 O          21.4552   70.2313   -2.6277 O.3     1  UNL1       -0.3112
      5 C          20.6985   70.1282   -3.8213 C.3     1  UNL1        0.1811
      6 O          18.9087   71.4179   -4.7735 O.3     1  UNL1       -0.3308
      7 O          17.1747   70.2519   -2.6231 O.3     1  UNL1       -0.3794
      8 O          16.5186   68.7440   -4.7985 O.3     1  UNL1       -0.3779
      9 C          18.2460   69.6469   -3.3452 C.3     1  UNL1        0.1713
     10 C          17.8089   69.3187   -4.7576 C.3     1  UNL1        0.1895
     11 C          19.3120   70.7096   -3.5811 C.3     1  UNL1        0.1764
     12 C          17.8640   70.6804   -5.4290 C.3     1  UNL1        0.2383
     13 H          16.4816   69.5923   -2.4603 H       1  UNL1        0.2105
     14 H          16.5354   67.8795   -4.3590 H       1  UNL1        0.2106
     15 O          15.9348   70.2945   -7.4556 O.2     1  UNL1       -0.2464
     16 O          19.1385   70.3423  -10.7685 O.2     1  UNL1       -0.2670
     17 N          18.1661   70.5887   -6.8296 N.ar    1  UNL1       -0.2551
     18 N          17.5315   70.3188   -9.1035 N.ar    1  UNL1       -0.2743
     19 C          17.1239   70.3932   -7.7655 C.ar    1  UNL1        0.3323
     20 C          19.4835   70.6926   -7.2626 C.ar    1  UNL1        0.0869
     21 C          19.8558   70.6182   -8.5421 C.ar    1  UNL1        0.0795
     22 C          18.8281   70.4150   -9.5835 C.ar    1  UNL1        0.2626
     23 H          16.8226   70.1825   -9.7733 H       1  UNL1        0.1734
     24 O          22.4232   71.9490   -1.0406 O.3     1  UNL1       -0.2703
     25 P          21.1467   71.9493   -0.0489 P.3     1  UNL1        0.2208
     26 O          20.9543   70.3832    0.3086 O.co2   1  UNL1       -0.4371
     27 O          19.9245   72.6090   -0.6192 O.2     1  UNL1       -0.5170
     28 O          21.6906   72.6154    1.3169 O.3     1  UNL1       -0.2858
     29 O          23.3109   71.0554    2.0637 O.3     1  UNL1       -0.3258
     30 O          23.8001   73.9541    4.9635 O.3     1  UNL1       -0.3794
     31 O          25.8149   73.6129    2.9455 O.3     1  UNL1       -0.3794
     32 O          21.1511   73.3324    3.9758 O.3     1  UNL1       -0.3775
     33 C          23.5340   73.4583    3.6487 C.3     1  UNL1        0.1715
     34 C          24.7620   72.6800    3.1720 C.3     1  UNL1        0.1694
     35 C          22.3069   72.5498    3.6967 C.3     1  UNL1        0.1967
     36 C          24.4571   71.8963    1.8883 C.3     1  UNL1        0.1761
     37 C          22.1226   71.7799    2.3877 C.3     1  UNL1        0.2704
     38 H          24.5778   74.5321    4.9399 H       1  UNL1        0.2105
     39 H          25.9972   74.1015    3.7636 H       1  UNL1        0.2105
     40 H          21.2801   73.8145    4.8069 H       1  UNL1        0.2106
     41 O          26.5156   70.8946    2.5725 O.3     1  UNL1       -0.3794
     42 C          25.6173   70.9899    1.4825 C.3     1  UNL1        0.1693
     43 H          27.2591   70.3204    2.3288 H       1  UNL1        0.2105
@<TRIPOS>UNITY_ATOM_ATTR
2 1
charge -1
26 1
charge -1
@<TRIPOS>BOND
     1    25    28    1
     2    25    24    1
     3    25    26    1
     4    25    27    2
     5     1     4    1
     6     1    24    1
     7     1     2    1
     8     1     3    2
     9     6    11    1
    10     6    12    1
    11    29    36    1
    12    29    37    1
    13     7     9    1
    14     7    13    1
    15     8    10    1
    16     8    14    1
    17    28    37    1
    18     4     5    1
    19    30    33    1
    20    30    38    1
    21    31    34    1
    22    31    39    1
    23    32    35    1
    24    32    40    1
    25    41    42    1
    26    41    43    1
    27    15    19    2
    28    16    22    2
    29    17    12    1
    30    17    19   ar
    31    17    20   ar
    32    18    19   ar
    33    18    22   ar
    34    18    23    1
    35     9    10    1
    36     9    11    1
    37    10    12    1
    38    11     5    1
    39    33    34    1
    40    33    35    1
    41    34    36    1
    42    35    37    1
    43    36    42    1
    44    20    21   ar
    45    21    22   ar
@<TRIPOS>MOLECULE
*****
 43 45 0 0 0
SMALL
GASTEIGER

@<TRIPOS>ATOM
      1 P          23.3433   72.0180   -3.3966 P.3     1  UNL1        0.2189
      2 O          24.1370   72.8842   -4.5089 O.co2   1  UNL1       -0.4371
      3 O          24.0704   70.8017   -2.9033 O.2     1  UNL1       -0.5170
      4 O          21.8990   71.7468   -4.0736 O.3     1  UNL1       -0.3112
      5 C          21.1673   70.6024   -3.6700 C.3     1  UNL1        0.1811
      6 O          19.1684   71.6269   -4.5235 O.3     1  UNL1       -0.3308
      7 O          17.7467   70.3328   -2.2225 O.3     1  UNL1       -0.3794
      8 O          17.1369   68.6795   -4.3036 O.3     1  UNL1       -0.3779
      9 C          18.8333   69.8394   -3.0043 C.3     1  UNL1        0.1713
     10 C          18.3446   69.4099   -4.3719 C.3     1  UNL1        0.1895
     11 C          19.7386   71.0164   -3.3452 C.3     1  UNL1        0.1764
     12 C          18.1820   70.7435   -5.0814 C.3     1  UNL1        0.2383
     13 H          17.1548   69.5989   -1.9922 H       1  UNL1        0.2105
     14 H          17.2923   67.8397   -3.8438 H       1  UNL1        0.2106
     15 O          16.2235   69.9011   -6.9342 O.2     1  UNL1       -0.2464
     16 O          19.1161   70.3842  -10.4895 O.2     1  UNL1       -0.2670
     17 N          18.3961   70.6402   -6.4974 N.ar    1  UNL1       -0.2551
     18 N          17.6653   70.1425   -8.7030 N.ar    1  UNL1       -0.2743
     19 C          17.3467   70.2058   -7.3404 C.ar    1  UNL1        0.3323
     20 C          19.6353   70.9680   -7.0366 C.ar    1  UNL1        0.0869
     21 C          19.9233   70.9009   -8.3380 C.ar    1  UNL1        0.0795
     22 C          18.8823   70.4564   -9.2870 C.ar    1  UNL1        0.2626
     23 H          16.9499   69.8421   -9.3094 H       1  UNL1        0.1734
     24 O          23.0095   73.1118   -2.2542 O.3     1  UNL1       -0.2703
     25 P          22.8007   72.9511   -0.6594 P.3     1  UNL1        0.2208
     26 O          21.2856   72.3968   -0.5376 O.co2   1  UNL1       -0.4371
     27 O          23.0670   74.2030    0.1253 O.2     1  UNL1       -0.5170
     28 O          23.7283   71.6952   -0.2504 O.3     1  UNL1       -0.2858
     29 O          24.6188   72.2618    1.8716 O.3     1  UNL1       -0.3258
     30 O          20.6079   72.1525    2.8470 O.3     1  UNL1       -0.3794
     31 O          21.9590   74.6814    2.6839 O.3     1  UNL1       -0.3794
     32 O          21.6968   70.2127    0.9947 O.3     1  UNL1       -0.3775
     33 C          21.7379   72.3984    2.0057 C.3     1  UNL1        0.1715
     34 C          22.6352   73.4273    2.6965 C.3     1  UNL1        0.1694
     35 C          22.4920   71.0881    1.7869 C.3     1  UNL1        0.1967
     36 C          23.9914   73.5442    1.9879 C.3     1  UNL1        0.1761
     37 C          23.8486   71.3218    1.1198 C.3     1  UNL1        0.2704
     38 H          20.1244   72.9804    2.9894 H       1  UNL1        0.2105
     39 H          21.1041   74.5938    3.1340 H       1  UNL1        0.2105
     40 H          20.8409   70.0725    1.4279 H       1  UNL1        0.2106
     41 O          25.2214   73.8602    4.0117 O.3     1  UNL1       -0.3794
     42 C          24.9591   74.4467    2.7502 C.3     1  UNL1        0.1693
     43 H          25.8363   74.4237    4.5080 H       1  UNL1        0.2105
@<TRIPOS>UNITY_ATOM_ATTR
2 1
charge -1
26 1
charge -1
@<TRIPOS>BOND
     1    25    28    1
     2    25    24    1
     3    25    26    1
     4    25    27    2
     5     1     4    1
     6     1    24    1
     7     1     2    1
     8     1     3    2
     9     6    11    1
    10     6    12    1
    11    29    36    1
    12    29    37    1
    13     7     9    1
    14     7    13    1
    15     8    10    1
    16     8    14    1
    17    28    37    1
    18     4     5    1
    19    30    33    1
    20    30    38    1
    21    31    34    1
    22    31    39    1
    23    32    35    1
    24    32    40    1
    25    41    42    1
    26    41    43    1
    27    15    19    2
    28    16    22    2
    29    17    12    1
    30    17    19   ar
    31    17    20   ar
    32    18    19   ar
    33    18    22   ar
    34    18    23    1
    35     9    10    1
    36     9    11    1
    37    10    12    1
    38    11     5    1
    39    33    34    1
    40    33    35    1
    41    34    36    1
    42    35    37    1
    43    36    42    1
    44    20    21   ar
    45    21    22   ar
@<TRIPOS>MOLECULE
*****
 43 45 0 0 0
SMALL
GASTEIGER

@<TRIPOS>ATOM
      1 P          22.7013   71.4086   -2.3673 P.3     1  UNL1        0.2189
      2 O          24.0667   70.7295   -2.9076 O.co2   1  UNL1       -0.4371
      3 O          22.1601   70.8202   -1.0976 O.2     1  UNL1       -0.5170
      4 O          21.7096   71.3562   -3.6447 O.3     1  UNL1       -0.3112
      5 C          20.7820   70.2890   -3.7371 C.3     1  UNL1        0.1811
      6 O          18.9426   71.5247   -4.6664 O.3     1  UNL1       -0.3308
      7 O          17.2692   70.3000   -2.5006 O.3     1  UNL1       -0.3794
      8 O          16.6367   68.7777   -4.6730 O.3     1  UNL1       -0.3779
      9 C          18.3510   69.7304   -3.2359 C.3     1  UNL1        0.1713
     10 C          17.9089   69.3921   -4.6444 C.3     1  UNL1        0.1895
     11 C          19.3808   70.8264   -3.4803 C.3     1  UNL1        0.1764
     12 C          17.9143   70.7566   -5.3125 C.3     1  UNL1        0.2383
     13 H          16.5988   69.6187   -2.3321 H       1  UNL1        0.2105
     14 H          16.6852   67.9131   -4.2361 H       1  UNL1        0.2106
     15 O          15.9904   70.2260   -7.3113 O.2     1  UNL1       -0.2464
     16 O          19.1399   70.4759  -10.6668 O.2     1  UNL1       -0.2670
     17 N          18.2039   70.6777   -6.7166 N.ar    1  UNL1       -0.2551
     18 N          17.5602   70.3510   -8.9805 N.ar    1  UNL1       -0.2743
     19 C          17.1657   70.4050   -7.6376 C.ar    1  UNL1        0.3323
     20 C          19.5052   70.8700   -7.1676 C.ar    1  UNL1        0.0869
     21 C          19.8652   70.8140   -8.4516 C.ar    1  UNL1        0.0795
     22 C          18.8406   70.5339   -9.4782 C.ar    1  UNL1        0.2626
     23 H          16.8538   70.1620   -9.6401 H       1  UNL1        0.1734
     24 O          23.0878   72.9753   -2.2715 O.3     1  UNL1       -0.2703
     25 P          23.6814   73.9919   -3.3793 P.3     1  UNL1        0.2208
     26 O          24.4486   73.0097   -4.4109 O.co2   1  UNL1       -0.4371
     27 O          24.5384   75.0868   -2.8131 O.2     1  UNL1       -0.5170
     28 O          22.3877   74.5088   -4.1943 O.3     1  UNL1       -0.2858
     29 O          20.9287   73.9465   -5.9752 O.3     1  UNL1       -0.3258
     30 O          22.4181   77.5077   -7.4416 O.3     1  UNL1       -0.3794
     31 O          19.7156   77.3912   -6.4766 O.3     1  UNL1       -0.3794
     32 O          24.1637   75.6896   -6.0181 O.3     1  UNL1       -0.3775
     33 C          21.9722   76.5997   -6.4306 C.3     1  UNL1        0.1715
     34 C          20.5145   76.2369   -6.7209 C.3     1  UNL1        0.1694
     35 C          22.8525   75.3516   -6.4573 C.3     1  UNL1        0.1967
     36 C          20.0487   75.0688   -5.8414 C.3     1  UNL1        0.1761
     37 C          22.2739   74.2337   -5.5880 C.3     1  UNL1        0.2704
     38 H          21.8636   78.3027   -7.4297 H       1  UNL1        0.2105
     39 H          20.0204   78.1216   -7.0378 H       1  UNL1        0.2105
     40 H          24.5191   76.3980   -6.5765 H       1  UNL1        0.2106
     41 O          18.3145   75.1379   -7.4836 O.3     1  UNL1       -0.3794
     42 C          18.6506   74.5874   -6.2233 C.3     1  UNL1        0.1693
     43 H          17.4272   74.8398   -7.7396 H       1  UNL1        0.2105
@<TRIPOS>UNITY_ATOM_ATTR
2 1
charge -1
26 1
charge -1
@<TRIPOS>BOND
     1    25    28    1
     2    25    24    1
     3    25    26    1
     4    25    27    2
     5     1     4    1
     6     1    24    1
     7     1     2    1
     8     1     3    2
     9     6    11    1
    10     6    12    1
    11    29    36    1
    12    29    37    1
    13     7     9    1
    14     7    13    1
    15     8    10    1
    16     8    14    1
    17    28    37    1
    18     4     5    1
    19    30    33    1
    20    30    38    1
    21    31    34    1
    22    31    39    1
    23    32    35    1
    24    32    40    1
    25    41    42    1
    26    41    43    1
    27    15    19    2
    28    16    22    2
    29    17    12    1
    30    17    19   ar
    31    17    20   ar
    32    18    19   ar
    33    18    22   ar
    34    18    23    1
    35     9    10    1
    36     9    11    1
    37    10    12    1
    38    11     5    1
    39    33    34    1
    40    33    35    1
    41    34    36    1
    42    35    37    1
    43    36    42    1
    44    20    21   ar
    45    21    22   ar
@<TRIPOS>MOLECULE
*****
 43 45 0 0 0
SMALL
GASTEIGER

@<TRIPOS>ATOM
      1 P          23.0267   71.6857   -2.5809 P.3     1  UNL1        0.2189
      2 O          23.3814   73.2613   -2.4860 O.co2   1  UNL1       -0.4371
      3 O          24.1372   70.8158   -3.0923 O.2     1  UNL1       -0.5170
      4 O          21.6537   71.6474   -3.4360 O.3     1  UNL1       -0.3112
      5 C          21.5008   72.5582   -4.5107 C.3     1  UNL1        0.1811
      6 O          20.6854   70.5896   -5.6212 O.3     1  UNL1       -0.3308
      7 O          21.3028   72.0099   -8.1888 O.3     1  UNL1       -0.3794
      8 O          18.6051   72.3382   -7.9617 O.3     1  UNL1       -0.3779
      9 C          20.8110   72.5412   -6.9595 C.3     1  UNL1        0.1713
     10 C          19.3533   72.1748   -6.7741 C.3     1  UNL1        0.1895
     11 C          21.4775   71.7810   -5.8197 C.3     1  UNL1        0.1764
     12 C          19.4465   70.7228   -6.3369 C.3     1  UNL1        0.2383
     13 H          20.8915   72.4800   -8.9316 H       1  UNL1        0.2105
     14 H          18.5749   73.2783   -8.1982 H       1  UNL1        0.2106
     15 O          16.9510   69.7530   -7.2368 O.2     1  UNL1       -0.2464
     16 O          15.3728   69.2882   -2.9317 O.2     1  UNL1       -0.2670
     17 N          18.3654   70.3405   -5.4729 N.ar    1  UNL1       -0.2551
     18 N          16.1673   69.5222   -5.0925 N.ar    1  UNL1       -0.2743
     19 C          17.1529   69.8668   -6.0261 C.ar    1  UNL1        0.3323
     20 C          18.5135   70.4366   -4.0935 C.ar    1  UNL1        0.0869
     21 C          17.5634   70.1051   -3.2168 C.ar    1  UNL1        0.0795
     22 C          16.2663   69.6012   -3.7124 C.ar    1  UNL1        0.2626
     23 H          15.3139   69.1900   -5.4548 H       1  UNL1        0.1734
     24 O          22.5318   71.3336   -1.0829 O.3     1  UNL1       -0.2703
     25 P          21.0709   71.4293   -0.3976 P.3     1  UNL1        0.2208
     26 O          20.1944   70.3633   -1.2420 O.co2   1  UNL1       -0.4371
     27 O          20.4961   72.8159   -0.3650 O.2     1  UNL1       -0.5170
     28 O          21.2549   70.7472    1.0535 O.3     1  UNL1       -0.2858
     29 O          23.0428   71.3805    2.4744 O.3     1  UNL1       -0.3258
     30 O          22.0459   75.0955    0.9725 O.3     1  UNL1       -0.3794
     31 O          24.4679   73.8189    0.1053 O.3     1  UNL1       -0.3794
     32 O          19.9640   73.1809    1.5883 O.3     1  UNL1       -0.3775
     33 C          22.2263   73.6775    0.9274 C.3     1  UNL1        0.1715
     34 C          23.6971   73.3717    1.2172 C.3     1  UNL1        0.1694
     35 C          21.3253   73.0262    1.9750 C.3     1  UNL1        0.1967
     36 C          23.9155   71.8706    1.4497 C.3     1  UNL1        0.1761
     37 C          21.6578   71.5450    2.1637 C.3     1  UNL1        0.2704
     38 H          22.6149   75.5151    0.3094 H       1  UNL1        0.2105
     39 H          24.3207   74.7680   -0.0310 H       1  UNL1        0.2105
     40 H          19.7660   74.1228    1.4723 H       1  UNL1        0.2106
     41 O          25.8134   70.4486    1.1584 O.3     1  UNL1       -0.3794
     42 C          25.3434   71.5626    1.8949 C.3     1  UNL1        0.1693
     43 H          26.7213   70.2412    1.4310 H       1  UNL1        0.2105
@<TRIPOS>UNITY_ATOM_ATTR
2 1
charge -1
26 1
charge -1
@<TRIPOS>BOND
     1    25    28    1
     2    25    24    1
     3    25    26    1
     4    25    27    2
     5     1     4    1
     6     1    24    1
     7     1     2    1
     8     1     3    2
     9     6    11    1
    10     6    12    1
    11    29    36    1
    12    29    37    1
    13     7     9    1
    14     7    13    1
    15     8    10    1
    16     8    14    1
    17    28    37    1
    18     4     5    1
    19    30    33    1
    20    30    38    1
    21    31    34    1
    22    31    39    1
    23    32    35    1
    24    32    40    1
    25    41    42    1
    26    41    43    1
    27    15    19    2
    28    16    22    2
    29    17    12    1
    30    17    19   ar
    31    17    20   ar
    32    18    19   ar
    33    18    22   ar
    34    18    23    1
    35     9    10    1
    36     9    11    1
    37    10    12    1
    38    11     5    1
    39    33    34    1
    40    33    35    1
    41    34    36    1
    42    35    37    1
    43    36    42    1
    44    20    21   ar
    45    21    22   ar
@<TRIPOS>MOLECULE
*****
 43 45 0 0 0
SMALL
GASTEIGER

@<TRIPOS>ATOM
      1 P          21.4380   72.2169   -4.7468 P.3     1  UNL1        0.2189
      2 O          20.6046   73.6029   -4.7059 O.co2   1  UNL1       -0.4371
      3 O          22.5509   72.1760   -5.7524 O.2     1  UNL1       -0.5170
      4 O          20.2968   71.0823   -4.9152 O.3     1  UNL1       -0.3112
      5 C          19.6573   70.5886   -3.7511 C.3     1  UNL1        0.1811
      6 O          17.9116   71.5646   -5.0830 O.3     1  UNL1       -0.3308
      7 O          15.9909   70.2472   -3.1946 O.3     1  UNL1       -0.3794
      8 O          15.9514   68.5728   -5.3468 O.3     1  UNL1       -0.3779
      9 C          17.2476   69.7756   -3.6780 C.3     1  UNL1        0.1713
     10 C          17.1227   69.3302   -5.1201 C.3     1  UNL1        0.1895
     11 C          18.1843   70.9715   -3.7945 C.3     1  UNL1        0.1764
     12 C          17.1133   70.6570   -5.8600 C.3     1  UNL1        0.2383
     13 H          15.3759   69.5010   -3.1117 H       1  UNL1        0.2105
     14 H          16.0054   67.7386   -4.8550 H       1  UNL1        0.2106
     15 O          15.6027   70.7103   -8.2460 O.2     1  UNL1       -0.2464
     16 O          19.3717   70.2499  -10.8583 O.2     1  UNL1       -0.2670
     17 N          17.6741   70.5534   -7.1776 N.ar    1  UNL1       -0.2551
     18 N          17.4806   70.4812   -9.5448 N.ar    1  UNL1       -0.2743
     19 C          16.8278   70.5900   -8.3103 C.ar    1  UNL1        0.3323
     20 C          19.0489   70.4175   -7.3368 C.ar    1  UNL1        0.0869
     21 C          19.6556   70.3137   -8.5210 C.ar    1  UNL1        0.0795
     22 C          18.8435   70.3432   -9.7546 C.ar    1  UNL1        0.2626
     23 H          16.9111   70.5038  -10.3479 H       1  UNL1        0.1734
     24 O          21.9109   72.0317   -3.2122 O.3     1  UNL1       -0.2703
     25 P          23.3865   71.9919   -2.5535 P.3     1  UNL1        0.2208
     26 O          24.0468   73.3872   -3.0380 O.co2   1  UNL1       -0.4371
     27 O          24.1863   70.7721   -2.9087 O.2     1  UNL1       -0.5170
     28 O          23.1332   72.1884   -0.9717 O.3     1  UNL1       -0.2858
     29 O          24.2800   70.9637    0.7021 O.3     1  UNL1       -0.3258
     30 O          20.8052   71.8084    2.7668 O.3     1  UNL1       -0.3794
     31 O          23.2359   73.1693    3.4651 O.3     1  UNL1       -0.3794
     32 O          20.6888   71.1615   -0.0524 O.3     1  UNL1       -0.3775
     33 C          21.8675   72.0644    1.8441 C.3     1  UNL1        0.1715
     34 C          23.1897   72.0282    2.6131 C.3     1  UNL1        0.1694
     35 C          21.8502   70.9948    0.7537 C.3     1  UNL1        0.1967
     36 C          24.3882   72.0281    1.6545 C.3     1  UNL1        0.1761
     37 C          23.1096   71.0512   -0.1129 C.3     1  UNL1        0.2704
     38 H          20.8103   72.4844    3.4615 H       1  UNL1        0.2105
     39 H          22.4735   73.1575    4.0650 H       1  UNL1        0.2105
     40 H          19.8984   71.1235    0.5078 H       1  UNL1        0.2106
     41 O          26.3523   70.6847    1.8701 O.3     1  UNL1       -0.3794
     42 C          25.7109   71.8336    2.3927 C.3     1  UNL1        0.1693
     43 H          27.1957   70.5486    2.3303 H       1  UNL1        0.2105
@<TRIPOS>UNITY_ATOM_ATTR
2 1
charge -1
26 1
charge -1
@<TRIPOS>BOND
     1    25    28    1
     2    25    24    1
     3    25    26    1
     4    25    27    2
     5     1     4    1
     6     1    24    1
     7     1     2    1
     8     1     3    2
     9     6    11    1
    10     6    12    1
    11    29    36    1
    12    29    37    1
    13     7     9    1
    14     7    13    1
    15     8    10    1
    16     8    14    1
    17    28    37    1
    18     4     5    1
    19    30    33    1
    20    30    38    1
    21    31    34    1
    22    31    39    1
    23    32    35    1
    24    32    40    1
    25    41    42    1
    26    41    43    1
    27    15    19    2
    28    16    22    2
    29    17    12    1
    30    17    19   ar
    31    17    20   ar
    32    18    19   ar
    33    18    22   ar
    34    18    23    1
    35     9    10    1
    36     9    11    1
    37    10    12    1
    38    11     5    1
    39    33    34    1
    40    33    35    1
    41    34    36    1
    42    35    37    1
    43    36    42    1
    44    20    21   ar
    45    21    22   ar
@<TRIPOS>MOLECULE
*****
 43 45 0 0 0
SMALL
GASTEIGER

@<TRIPOS>ATOM
      1 P          20.4665   71.1822   -1.3470 P.3     1  UNL1        0.2189
      2 O          20.7226   70.5152    0.1046 O.co2   1  UNL1       -0.4371
      3 O          20.0462   72.6223   -1.3175 O.2     1  UNL1       -0.5170
      4 O          19.4351   70.1637   -2.0659 O.3     1  UNL1       -0.3112
      5 C          19.1440   70.3541   -3.4395 C.3     1  UNL1        0.1811
      6 O          17.4893   71.3759   -4.8508 O.3     1  UNL1       -0.3308
      7 O          15.4585   69.8519   -3.2557 O.3     1  UNL1       -0.3794
      8 O          15.6802   68.3530   -5.5231 O.3     1  UNL1       -0.3779
      9 C          16.7714   69.4607   -3.6540 C.3     1  UNL1        0.1713
     10 C          16.7954   69.1272   -5.1310 C.3     1  UNL1        0.1895
     11 C          17.6671   70.6916   -3.5912 C.3     1  UNL1        0.1764
     12 C          16.8010   70.5076   -5.7657 C.3     1  UNL1        0.2383
     13 H          14.8683   69.0821   -3.2875 H       1  UNL1        0.2105
     14 H          15.7222   67.4845   -5.0932 H       1  UNL1        0.2106
     15 O          15.5082   70.6070   -8.2750 O.2     1  UNL1       -0.2464
     16 O          19.5179   70.5755  -10.5472 O.2     1  UNL1       -0.2670
     17 N          17.4826   70.5268   -7.0291 N.ar    1  UNL1       -0.2551
     18 N          17.5058   70.5914   -9.4043 N.ar    1  UNL1       -0.2743
     19 C          16.7398   70.5762   -8.2317 C.ar    1  UNL1        0.3323
     20 C          18.8724   70.4970   -7.0672 C.ar    1  UNL1        0.0869
     21 C          19.5879   70.5107   -8.1938 C.ar    1  UNL1        0.0795
     22 C          18.8884   70.5619   -9.4939 C.ar    1  UNL1        0.2626
     23 H          17.0097   70.6253  -10.2544 H       1  UNL1        0.1734
     24 O          21.8552   70.9025   -2.1256 O.3     1  UNL1       -0.2703
     25 P          23.3208   71.5623   -1.9525 P.3     1  UNL1        0.2208
     26 O          24.2396   70.6954   -2.9633 O.co2   1  UNL1       -0.4371
     27 O          23.8181   71.5937   -0.5363 O.2     1  UNL1       -0.5170
     28 O          23.2013   73.0120   -2.6518 O.3     1  UNL1       -0.2858
     29 O          23.6863   72.8632   -4.9668 O.3     1  UNL1       -0.3258
     30 O          23.4776   76.9708   -4.5990 O.3     1  UNL1       -0.3794
     31 O          21.3669   75.5581   -5.9396 O.3     1  UNL1       -0.3794
     32 O          24.6801   75.3916   -2.4919 O.3     1  UNL1       -0.3775
     33 C          23.1177   75.6169   -4.3112 C.3     1  UNL1        0.1715
     34 C          22.6196   74.9679   -5.6040 C.3     1  UNL1        0.1694
     35 C          24.3427   74.8778   -3.7759 C.3     1  UNL1        0.1967
     36 C          22.4678   73.4497   -5.4389 C.3     1  UNL1        0.1761
     37 C          24.1023   73.3691   -3.6968 C.3     1  UNL1        0.2704
     38 H          22.7041   77.4458   -4.9389 H       1  UNL1        0.2105
     39 H          21.4765   76.5168   -6.0405 H       1  UNL1        0.2105
     40 H          24.8301   76.3473   -2.5554 H       1  UNL1        0.2106
     41 O          23.1621   73.0236   -7.6851 O.3     1  UNL1       -0.3794
     42 C          22.1240   72.7625   -6.7586 C.3     1  UNL1        0.1693
     43 H          22.9570   72.5921   -8.5297 H       1  UNL1        0.2105
@<TRIPOS>UNITY_ATOM_ATTR
2 1
charge -1
26 1
charge -1
@<TRIPOS>BOND
     1    25    28    1
     2    25    24    1
     3    25    26    1
     4    25    27    2
     5     1     4    1
     6     1    24    1
     7     1     2    1
     8     1     3    2
     9     6    11    1
    10     6    12    1
    11    29    36    1
    12    29    37    1
    13     7     9    1
    14     7    13    1
    15     8    10    1
    16     8    14    1
    17    28    37    1
    18     4     5    1
    19    30    33    1
    20    30    38    1
    21    31    34    1
    22    31    39    1
    23    32    35    1
    24    32    40    1
    25    41    42    1
    26    41    43    1
    27    15    19    2
    28    16    22    2
    29    17    12    1
    30    17    19   ar
    31    17    20   ar
    32    18    19   ar
    33    18    22   ar
    34    18    23    1
    35     9    10    1
    36     9    11    1
    37    10    12    1
    38    11     5    1
    39    33    34    1
    40    33    35    1
    41    34    36    1
    42    35    37    1
    43    36    42    1
    44    20    21   ar
    45    21    22   ar
@<TRIPOS>MOLECULE
*****
 43 45 0 0 0
SMALL
GASTEIGER

@<TRIPOS>ATOM
      1 P          23.1460   71.9311   -2.9580 P.3     1  UNL1        0.2189
      2 O          23.6168   73.4253   -3.3621 O.co2   1  UNL1       -0.4371
      3 O          24.1912   70.8687   -3.1313 O.2     1  UNL1       -0.5170
      4 O          21.7787   71.7149   -3.7957 O.3     1  UNL1       -0.3112
      5 C          21.5005   72.5913   -4.8738 C.3     1  UNL1        0.1811
      6 O          20.6488   70.5818   -5.8790 O.3     1  UNL1       -0.3308
      7 O          21.0663   71.9468   -8.5159 O.3     1  UNL1       -0.3794
      8 O          18.3844   72.2355   -8.1152 O.3     1  UNL1       -0.3779
      9 C          20.6484   72.5008   -7.2694 C.3     1  UNL1        0.1713
     10 C          19.2134   72.1148   -6.9772 C.3     1  UNL1        0.1895
     11 C          21.4038   71.7809   -6.1592 C.3     1  UNL1        0.1764
     12 C          19.3625   70.6761   -6.5124 C.3     1  UNL1        0.2383
     13 H          20.5975   72.3911   -9.2404 H       1  UNL1        0.2105
     14 H          18.3211   73.1688   -8.3717 H       1  UNL1        0.2106
     15 O          16.7807   69.7742   -7.2187 O.2     1  UNL1       -0.2464
     16 O          15.5561   69.2533   -2.8061 O.2     1  UNL1       -0.2670
     17 N          18.3490   70.2977   -5.5684 N.ar    1  UNL1       -0.2551
     18 N          16.1731   69.5154   -5.0210 N.ar    1  UNL1       -0.2743
     19 C          17.0849   69.8594   -6.0271 C.ar    1  UNL1        0.3323
     20 C          18.6133   70.3628   -4.2047 C.ar    1  UNL1        0.0869
     21 C          17.7324   70.0324   -3.2580 C.ar    1  UNL1        0.0795
     22 C          16.3881   69.5644   -3.6528 C.ar    1  UNL1        0.2626
     23 H          15.2857   69.2076   -5.3169 H       1  UNL1        0.1734
     24 O          22.6178   72.1143   -1.4413 O.3     1  UNL1       -0.2703
     25 P          21.1200   72.2432   -0.8472 P.3     1  UNL1        0.2208
     26 O          20.7386   70.7173   -0.4679 O.co2   1  UNL1       -0.4371
     27 O          20.1463   72.9131   -1.7730 O.2     1  UNL1       -0.5170
     28 O          21.3071   72.9822    0.5754 O.3     1  UNL1       -0.2858
     29 O          22.9899   74.4473    1.3744 O.3     1  UNL1       -0.3258
     30 O          22.3348   72.2570    4.8131 O.3     1  UNL1       -0.3794
     31 O          21.4054   74.9702    4.6615 O.3     1  UNL1       -0.3794
     32 O          22.2905   70.9433    2.2340 O.3     1  UNL1       -0.3775
     33 C          21.9692   72.9062    3.5923 C.3     1  UNL1        0.1715
     34 C          22.3062   74.3931    3.7203 C.3     1  UNL1        0.1694
     35 C          22.7477   72.2758    2.4391 C.3     1  UNL1        0.1967
     36 C          22.1926   75.1055    2.3658 C.3     1  UNL1        0.1761
     37 C          22.6065   73.0890    1.1511 C.3     1  UNL1        0.2704
     38 H          21.8437   72.6523    5.5493 H       1  UNL1        0.2105
     39 H          21.4868   74.5110    5.5123 H       1  UNL1        0.2105
     40 H          22.3854   70.4389    3.0564 H       1  UNL1        0.2106
     41 O          21.8212   77.3518    1.6414 O.3     1  UNL1       -0.3794
     42 C          22.6757   76.5524    2.4383 C.3     1  UNL1        0.1693
     43 H          22.1164   78.2755    1.6782 H       1  UNL1        0.2105
@<TRIPOS>UNITY_ATOM_ATTR
2 1
charge -1
26 1
charge -1
@<TRIPOS>BOND
     1    25    28    1
     2    25    24    1
     3    25    26    1
     4    25    27    2
     5     1     4    1
     6     1    24    1
     7     1     2    1
     8     1     3    2
     9     6    11    1
    10     6    12    1
    11    29    36    1
    12    29    37    1
    13     7     9    1
    14     7    13    1
    15     8    10    1
    16     8    14    1
    17    28    37    1
    18     4     5    1
    19    30    33    1
    20    30    38    1
    21    31    34    1
    22    31    39    1
    23    32    35    1
    24    32    40    1
    25    41    42    1
    26    41    43    1
    27    15    19    2
    28    16    22    2
    29    17    12    1
    30    17    19   ar
    31    17    20   ar
    32    18    19   ar
    33    18    22   ar
    34    18    23    1
    35     9    10    1
    36     9    11    1
    37    10    12    1
    38    11     5    1
    39    33    34    1
    40    33    35    1
    41    34    36    1
    42    35    37    1
    43    36    42    1
    44    20    21   ar
    45    21    22   ar
@<TRIPOS>MOLECULE
*****
 43 45 0 0 0
SMALL
GASTEIGER

@<TRIPOS>ATOM
      1 P          23.0289   71.9099   -3.1550 P.3     1  UNL1        0.2189
      2 O          23.5950   73.3138   -3.7258 O.co2   1  UNL1       -0.4371
      3 O          24.0471   70.8132   -3.0460 O.2     1  UNL1       -0.5170
      4 O          21.7532   71.5931   -4.0985 O.3     1  UNL1       -0.3112
      5 C          20.9376   70.4787   -3.7811 C.3     1  UNL1        0.1811
      6 O          19.0260   71.6218   -4.6828 O.3     1  UNL1       -0.3308
      7 O          17.4610   70.3739   -2.4502 O.3     1  UNL1       -0.3794
      8 O          16.8335   68.7855   -4.5762 O.3     1  UNL1       -0.3779
      9 C          18.5451   69.8336   -3.2039 C.3     1  UNL1        0.1713
     10 C          18.0801   69.4506   -4.5934 C.3     1  UNL1        0.1895
     11 C          19.5231   70.9648   -3.4963 C.3     1  UNL1        0.1764
     12 C          18.0129   70.8008   -5.2865 C.3     1  UNL1        0.2383
     13 H          16.8234   69.6699   -2.2511 H       1  UNL1        0.2105
     14 H          16.9283   67.9322   -4.1249 H       1  UNL1        0.2106
     15 O          16.0993   70.0036   -7.2050 O.2     1  UNL1       -0.2464
     16 O          19.1053   70.4727  -10.6669 O.2     1  UNL1       -0.2670
     17 N          18.2683   70.7062   -6.6962 N.ar    1  UNL1       -0.2551
     18 N          17.5976   70.2380   -8.9272 N.ar    1  UNL1       -0.2743
     19 C          17.2387   70.2948   -7.5744 C.ar    1  UNL1        0.3323
     20 C          19.5280   71.0198   -7.1948 C.ar    1  UNL1        0.0869
     21 C          19.8544   70.9593   -8.4875 C.ar    1  UNL1        0.0795
     22 C          18.8362   70.5384   -9.4714 C.ar    1  UNL1        0.2626
     23 H          16.8965   69.9535   -9.5576 H       1  UNL1        0.1734
     24 O          22.3467   72.3362   -1.7529 O.3     1  UNL1       -0.2703
     25 P          22.2154   71.5417   -0.3513 P.3     1  UNL1        0.2208
     26 O          23.7275   71.0427   -0.0645 O.co2   1  UNL1       -0.4371
     27 O          21.1921   70.4432   -0.3602 O.2     1  UNL1       -0.5170
     28 O          21.9508   72.6934    0.7480 O.3     1  UNL1       -0.2858
     29 O          21.3235   72.1882    2.9768 O.3     1  UNL1       -0.3258
     30 O          19.7690   76.0039    2.7026 O.3     1  UNL1       -0.3794
     31 O          22.1195   75.5408    4.2866 O.3     1  UNL1       -0.3794
     32 O          19.6141   74.2150    0.4321 O.3     1  UNL1       -0.3775
     33 C          20.7103   74.9587    2.4437 C.3     1  UNL1        0.1715
     34 C          21.2930   74.4962    3.7806 C.3     1  UNL1        0.1694
     35 C          19.9954   73.8060    1.7412 C.3     1  UNL1        0.1967
     36 C          22.1058   73.2052    3.6136 C.3     1  UNL1        0.1761
     37 C          20.8738   72.5555    1.6712 C.3     1  UNL1        0.2704
     38 H          20.2166   76.7392    3.1482 H       1  UNL1        0.2105
     39 H          21.5943   76.3504    4.3869 H       1  UNL1        0.2105
     40 H          19.0583   75.0072    0.4900 H       1  UNL1        0.2106
     41 O          21.7491   73.1880    5.9761 O.3     1  UNL1       -0.3794
     42 C          22.5641   72.6402    4.9563 C.3     1  UNL1        0.1693
     43 H          22.0291   72.8370    6.8364 H       1  UNL1        0.2105
@<TRIPOS>UNITY_ATOM_ATTR
2 1
charge -1
26 1
charge -1
@<TRIPOS>BOND
     1    25    28    1
     2    25    24    1
     3    25    26    1
     4    25    27    2
     5     1     4    1
     6     1    24    1
     7     1     2    1
     8     1     3    2
     9     6    11    1
    10     6    12    1
    11    29    36    1
    12    29    37    1
    13     7     9    1
    14     7    13    1
    15     8    10    1
    16     8    14    1
    17    28    37    1
    18     4     5    1
    19    30    33    1
    20    30    38    1
    21    31    34    1
    22    31    39    1
    23    32    35    1
    24    32    40    1
    25    41    42    1
    26    41    43    1
    27    15    19    2
    28    16    22    2
    29    17    12    1
    30    17    19   ar
    31    17    20   ar
    32    18    19   ar
    33    18    22   ar
    34    18    23    1
    35     9    10    1
    36     9    11    1
    37    10    12    1
    38    11     5    1
    39    33    34    1
    40    33    35    1
    41    34    36    1
    42    35    37    1
    43    36    42    1
    44    20    21   ar
    45    21    22   ar
@<TRIPOS>MOLECULE
*****
 43 45 0 0 0
SMALL
GASTEIGER

@<TRIPOS>ATOM
      1 P          22.5691   71.3740   -2.7052 P.3     1  UNL1        0.2189
      2 O          24.0060   70.7577   -3.1209 O.co2   1  UNL1       -0.4371
      3 O          22.0831   70.9839   -1.3402 O.2     1  UNL1       -0.5170
      4 O          21.6018   70.9695   -3.9375 O.3     1  UNL1       -0.3112
      5 C          20.6298   69.9594   -3.7307 C.3     1  UNL1        0.1811
      6 O          18.9245   71.3665   -4.6719 O.3     1  UNL1       -0.3308
      7 O          17.1092   70.2638   -2.5554 O.3     1  UNL1       -0.3794
      8 O          16.3855   68.8351   -4.7626 O.3     1  UNL1       -0.3779
      9 C          18.1500   69.6113   -3.2809 C.3     1  UNL1        0.1713
     10 C          17.7062   69.3339   -4.7020 C.3     1  UNL1        0.1895
     11 C          19.2770   70.6151   -3.4898 C.3     1  UNL1        0.1764
     12 C          17.8447   70.7019   -5.3481 C.3     1  UNL1        0.2383
     13 H          16.3782   69.6423   -2.4096 H       1  UNL1        0.2105
     14 H          16.3492   67.9633   -4.3389 H       1  UNL1        0.2106
     15 O          15.9187   70.3794   -7.3888 O.2     1  UNL1       -0.2464
     16 O          19.1408   70.3907  -10.6840 O.2     1  UNL1       -0.2670
     17 N          18.1524   70.6179   -6.7479 N.ar    1  UNL1       -0.2551
     18 N          17.5246   70.3855   -9.0279 N.ar    1  UNL1       -0.2743
     19 C          17.1113   70.4551   -7.6914 C.ar    1  UNL1        0.3323
     20 C          19.4741   70.6973   -7.1729 C.ar    1  UNL1        0.0869
     21 C          19.8517   70.6278   -8.4511 C.ar    1  UNL1        0.0795
     22 C          18.8256   70.4580   -9.5000 C.ar    1  UNL1        0.2626
     23 H          16.8165   70.2717   -9.7028 H       1  UNL1        0.1734
     24 O          22.7804   72.9627   -2.9155 O.3     1  UNL1       -0.2703
     25 P          23.1176   73.8223   -4.2423 P.3     1  UNL1        0.2208
     26 O          21.7973   74.7368   -4.4374 O.co2   1  UNL1       -0.4371
     27 O          23.4774   72.9907   -5.4393 O.2     1  UNL1       -0.5170
     28 O          24.2654   74.8575   -3.7776 O.3     1  UNL1       -0.2858
     29 O          24.6651   77.0576   -2.9926 O.3     1  UNL1       -0.3258
     30 O          26.6579   77.2729   -6.6027 O.3     1  UNL1       -0.3794
     31 O          28.1607   77.1684   -4.1576 O.3     1  UNL1       -0.3794
     32 O          24.1653   75.8132   -6.4142 O.3     1  UNL1       -0.3775
     33 C          26.1911   76.6408   -5.4078 C.3     1  UNL1        0.1715
     34 C          26.7565   77.4046   -4.2088 C.3     1  UNL1        0.1694
     35 C          24.6639   76.6693   -5.3920 C.3     1  UNL1        0.1967
     36 C          26.0909   76.9546   -2.9014 C.3     1  UNL1        0.1761
     37 C          24.1053   76.2509   -4.0307 C.3     1  UNL1        0.2704
     38 H          27.6270   77.2578   -6.6193 H       1  UNL1        0.2105
     39 H          28.5688   77.4564   -4.9893 H       1  UNL1        0.2105
     40 H          24.5260   76.0887   -7.2709 H       1  UNL1        0.2106
     41 O          27.0491   79.0304   -2.2075 O.3     1  UNL1       -0.3794
     42 C          26.5250   77.8114   -1.7141 C.3     1  UNL1        0.1693
     43 H          27.3292   79.5862   -1.4629 H       1  UNL1        0.2105
@<TRIPOS>UNITY_ATOM_ATTR
2 1
charge -1
26 1
charge -1
@<TRIPOS>BOND
     1    25    28    1
     2    25    24    1
     3    25    26    1
     4    25    27    2
     5     1     4    1
     6     1    24    1
     7     1     2    1
     8     1     3    2
     9     6    11    1
    10     6    12    1
    11    29    36    1
    12    29    37    1
    13     7     9    1
    14     7    13    1
    15     8    10    1
    16     8    14    1
    17    28    37    1
    18     4     5    1
    19    30    33    1
    20    30    38    1
    21    31    34    1
    22    31    39    1
    23    32    35    1
    24    32    40    1
    25    41    42    1
    26    41    43    1
    27    15    19    2
    28    16    22    2
    29    17    12    1
    30    17    19   ar
    31    17    20   ar
    32    18    19   ar
    33    18    22   ar
    34    18    23    1
    35     9    10    1
    36     9    11    1
    37    10    12    1
    38    11     5    1
    39    33    34    1
    40    33    35    1
    41    34    36    1
    42    35    37    1
    43    36    42    1
    44    20    21   ar
    45    21    22   ar
@<TRIPOS>MOLECULE
*****
 43 45 0 0 0
SMALL
GASTEIGER

@<TRIPOS>ATOM
      1 P          22.8071   71.4724   -2.7339 P.3     1  UNL1        0.2189
      2 O          22.8302   73.0676   -2.4651 O.co2   1  UNL1       -0.4371
      3 O          24.1480   70.8558   -3.0044 O.2     1  UNL1       -0.5170
      4 O          21.7019   71.2912   -3.9016 O.3     1  UNL1       -0.3112
      5 C          21.6233   72.2766   -4.9168 C.3     1  UNL1        0.1811
      6 O          20.5403   70.4333   -6.0138 O.3     1  UNL1       -0.3308
      7 O          20.8757   71.9910   -8.5539 O.3     1  UNL1       -0.3794
      8 O          18.2623   72.4433   -7.9200 O.3     1  UNL1       -0.3779
      9 C          20.5956   72.4623   -7.2368 C.3     1  UNL1        0.1713
     10 C          19.1588   72.1607   -6.8649 C.3     1  UNL1        0.1895
     11 C          21.3681   71.5926   -6.2529 C.3     1  UNL1        0.1764
     12 C          19.2234   70.6794   -6.5336 C.3     1  UNL1        0.2383
     13 H          20.3935   72.5314   -9.1999 H       1  UNL1        0.2105
     14 H          18.2568   73.3977   -8.0929 H       1  UNL1        0.2106
     15 O          16.5823   69.8699   -7.1225 O.2     1  UNL1       -0.2464
     16 O          15.5891   69.2327   -2.6673 O.2     1  UNL1       -0.2670
     17 N          18.2534   70.2961   -5.5469 N.ar    1  UNL1       -0.2551
     18 N          16.0900   69.5531   -4.9037 N.ar    1  UNL1       -0.2743
     19 C          16.9541   69.9069   -5.9478 C.ar    1  UNL1        0.3323
     20 C          18.5943   70.3083   -4.1987 C.ar    1  UNL1        0.0869
     21 C          17.7582   69.9693   -3.2153 C.ar    1  UNL1        0.0795
     22 C          16.3816   69.5503   -3.5488 C.ar    1  UNL1        0.2626
     23 H          15.1793   69.2788   -5.1591 H       1  UNL1        0.1734
     24 O          22.0524   70.8944   -1.4265 O.3     1  UNL1       -0.2703
     25 P          22.3471   71.1043    0.1490 P.3     1  UNL1        0.2208
     26 O          23.9591   71.2275    0.2117 O.co2   1  UNL1       -0.4371
     27 O          21.7731   70.0331    1.0304 O.2     1  UNL1       -0.5170
     28 O          21.8118   72.5927    0.4700 O.3     1  UNL1       -0.2858
     29 O          22.7749   74.5466    1.4033 O.3     1  UNL1       -0.3258
     30 O          19.1616   74.5728    3.4018 O.3     1  UNL1       -0.3794
     31 O          19.6477   76.4968    1.3257 O.3     1  UNL1       -0.3794
     32 O          20.5179   72.0645    2.9035 O.3     1  UNL1       -0.3775
     33 C          20.0358   74.3441    2.2933 C.3     1  UNL1        0.1715
     34 C          20.6665   75.6803    1.8963 C.3     1  UNL1        0.1694
     35 C          21.1129   73.3425    2.7054 C.3     1  UNL1        0.1967
     36 C          21.8114   75.4766    0.8949 C.3     1  UNL1        0.1761
     37 C          22.2287   73.2520    1.6628 C.3     1  UNL1        0.2704
     38 H          18.4750   75.2076    3.1466 H       1  UNL1        0.2105
     39 H          18.9306   76.6172    1.9680 H       1  UNL1        0.2105
     40 H          19.8135   72.1351    3.5658 H       1  UNL1        0.2106
     41 O          21.8237   77.5110   -0.3582 O.3     1  UNL1       -0.3794
     42 C          22.5567   76.7778    0.6059 C.3     1  UNL1        0.1693
     43 H          22.2861   78.3419   -0.5518 H       1  UNL1        0.2105
@<TRIPOS>UNITY_ATOM_ATTR
2 1
charge -1
26 1
charge -1
@<TRIPOS>BOND
     1    25    28    1
     2    25    24    1
     3    25    26    1
     4    25    27    2
     5     1     4    1
     6     1    24    1
     7     1     2    1
     8     1     3    2
     9     6    11    1
    10     6    12    1
    11    29    36    1
    12    29    37    1
    13     7     9    1
    14     7    13    1
    15     8    10    1
    16     8    14    1
    17    28    37    1
    18     4     5    1
    19    30    33    1
    20    30    38    1
    21    31    34    1
    22    31    39    1
    23    32    35    1
    24    32    40    1
    25    41    42    1
    26    41    43    1
    27    15    19    2
    28    16    22    2
    29    17    12    1
    30    17    19   ar
    31    17    20   ar
    32    18    19   ar
    33    18    22   ar
    34    18    23    1
    35     9    10    1
    36     9    11    1
    37    10    12    1
    38    11     5    1
    39    33    34    1
    40    33    35    1
    41    34    36    1
    42    35    37    1
    43    36    42    1
    44    20    21   ar
    45    21    22   ar
@<TRIPOS>MOLECULE
*****
 43 45 0 0 0
SMALL
GASTEIGER

@<TRIPOS>ATOM
      1 P          23.0449   71.4983   -2.9549 P.3     1  UNL1        0.2189
      2 O          24.4265   70.6734   -3.1232 O.co2   1  UNL1       -0.4371
      3 O          21.8712   70.6824   -2.4987 O.2     1  UNL1       -0.5170
      4 O          22.8671   72.2520   -4.3755 O.3     1  UNL1       -0.3112
      5 C          21.5552   72.4851   -4.8577 C.3     1  UNL1        0.1811
      6 O          20.5949   70.5482   -5.9065 O.3     1  UNL1       -0.3308
      7 O          20.9187   72.0220   -8.4976 O.3     1  UNL1       -0.3794
      8 O          18.2701   72.3646   -7.9458 O.3     1  UNL1       -0.3779
      9 C          20.5808   72.5288   -7.2075 C.3     1  UNL1        0.1713
     10 C          19.1516   72.1689   -6.8589 C.3     1  UNL1        0.1895
     11 C          21.3698   71.7381   -6.1713 C.3     1  UNL1        0.1764
     12 C          19.2815   70.7067   -6.4675 C.3     1  UNL1        0.2383
     13 H          20.4272   72.5119   -9.1761 H       1  UNL1        0.2105
     14 H          18.2214   73.3101   -8.1566 H       1  UNL1        0.2106
     15 O          16.6581   69.8597   -7.0824 O.2     1  UNL1       -0.2464
     16 O          15.6261   69.2201   -2.6363 O.2     1  UNL1       -0.2670
     17 N          18.3064   70.3126   -5.4902 N.ar    1  UNL1       -0.2551
     18 N          16.1464   69.5418   -4.8681 N.ar    1  UNL1       -0.2743
     19 C          17.0168   69.9047   -5.9038 C.ar    1  UNL1        0.3323
     20 C          18.6326   70.3327   -4.1385 C.ar    1  UNL1        0.0869
     21 C          17.7907   69.9848   -3.1631 C.ar    1  UNL1        0.0795
     22 C          16.4235   69.5463   -3.5102 C.ar    1  UNL1        0.2626
     23 H          15.2424   69.2545   -5.1325 H       1  UNL1        0.1734
     24 O          23.4583   72.6996   -1.9555 O.3     1  UNL1       -0.2703
     25 P          22.5541   73.7816   -1.1651 P.3     1  UNL1        0.2208
     26 O          21.0856   73.1026   -1.1568 O.co2   1  UNL1       -0.4371
     27 O          22.5943   75.1630   -1.7515 O.2     1  UNL1       -0.5170
     28 O          23.0540   73.6904    0.3669 O.3     1  UNL1       -0.2858
     29 O          21.4824   74.6704    1.8456 O.3     1  UNL1       -0.3258
     30 O          24.5969   74.0773    4.4912 O.3     1  UNL1       -0.3794
     31 O          22.2599   72.4163    4.6568 O.3     1  UNL1       -0.3794
     32 O          25.1486   74.9159    1.7761 O.3     1  UNL1       -0.3775
     33 C          23.7595   73.7676    3.3739 C.3     1  UNL1        0.1715
     34 C          22.3243   73.6088    3.8797 C.3     1  UNL1        0.1694
     35 C          23.8479   74.9017    2.3544 C.3     1  UNL1        0.1967
     36 C          21.3300   73.5406    2.7128 C.3     1  UNL1        0.1761
     37 C          22.7841   74.7648    1.2636 C.3     1  UNL1        0.2704
     38 H          24.5457   73.3609    5.1421 H       1  UNL1        0.2105
     39 H          22.8928   72.4720    5.3900 H       1  UNL1        0.2105
     40 H          25.8129   75.0033    2.4767 H       1  UNL1        0.2106
     41 O          19.8730   73.7637    4.5933 O.3     1  UNL1       -0.3794
     42 C          19.8811   73.5409    3.1952 C.3     1  UNL1        0.1693
     43 H          18.9572   73.7668    4.9143 H       1  UNL1        0.2105
@<TRIPOS>UNITY_ATOM_ATTR
2 1
charge -1
26 1
charge -1
@<TRIPOS>BOND
     1    25    28    1
     2    25    24    1
     3    25    26    1
     4    25    27    2
     5     1     4    1
     6     1    24    1
     7     1     2    1
     8     1     3    2
     9     6    11    1
    10     6    12    1
    11    29    36    1
    12    29    37    1
    13     7     9    1
    14     7    13    1
    15     8    10    1
    16     8    14    1
    17    28    37    1
    18     4     5    1
    19    30    33    1
    20    30    38    1
    21    31    34    1
    22    31    39    1
    23    32    35    1
    24    32    40    1
    25    41    42    1
    26    41    43    1
    27    15    19    2
    28    16    22    2
    29    17    12    1
    30    17    19   ar
    31    17    20   ar
    32    18    19   ar
    33    18    22   ar
    34    18    23    1
    35     9    10    1
    36     9    11    1
    37    10    12    1
    38    11     5    1
    39    33    34    1
    40    33    35    1
    41    34    36    1
    42    35    37    1
    43    36    42    1
    44    20    21   ar
    45    21    22   ar
@<TRIPOS>MOLECULE
*****
 43 45 0 0 0
SMALL
GASTEIGER

@<TRIPOS>ATOM
      1 P          22.4863   72.3095   -2.9537 P.3     1  UNL1        0.2189
      2 O          23.5681   72.1099   -4.1400 O.co2   1  UNL1       -0.4371
      3 O          22.6235   71.3554   -1.8038 O.2     1  UNL1       -0.5170
      4 O          21.0612   72.2864   -3.7196 O.3     1  UNL1       -0.3112
      5 C          20.3476   71.0639   -3.7832 C.3     1  UNL1        0.1811
      6 O          18.3990   71.8617   -4.9410 O.3     1  UNL1       -0.3308
      7 O          16.8006   70.5284   -2.7827 O.3     1  UNL1       -0.3794
      8 O          16.6252   68.7462   -4.8393 O.3     1  UNL1       -0.3779
      9 C          18.0219   70.1101   -3.3901 C.3     1  UNL1        0.1713
     10 C          17.7617   69.5843   -4.7863 C.3     1  UNL1        0.1895
     11 C          18.8572   71.3535   -3.6690 C.3     1  UNL1        0.1764
     12 C          17.5787   70.8682   -5.5775 C.3     1  UNL1        0.2383
     13 H          16.2504   69.7513   -2.5949 H       1  UNL1        0.2105
     14 H          16.7910   67.9432   -4.3212 H       1  UNL1        0.2106
     15 O          15.8360   70.2508   -7.7128 O.2     1  UNL1       -0.2464
     16 O          19.2671   70.3666  -10.7878 O.2     1  UNL1       -0.2670
     17 N          17.9898   70.7314   -6.9463 N.ar    1  UNL1       -0.2551
     18 N          17.5458   70.3091   -9.2422 N.ar    1  UNL1       -0.2743
     19 C          17.0356   70.4184   -7.9423 C.ar    1  UNL1        0.3323
     20 C          19.3258   70.9073   -7.2896 C.ar    1  UNL1        0.0869
     21 C          19.7966   70.7984   -8.5337 C.ar    1  UNL1        0.0795
     22 C          18.8652   70.4736   -9.6333 C.ar    1  UNL1        0.2626
     23 H          16.8995   70.0913   -9.9525 H       1  UNL1        0.1734
     24 O          22.6620   73.8674   -2.5600 O.3     1  UNL1       -0.2703
     25 P          23.3423   74.5663   -1.2710 P.3     1  UNL1        0.2208
     26 O          24.0652   75.8722   -1.8953 O.co2   1  UNL1       -0.4371
     27 O          24.2566   73.6648   -0.4930 O.2     1  UNL1       -0.5170
     28 O          22.1014   75.1539   -0.4224 O.3     1  UNL1       -0.2858
     29 O          21.4441   74.5347    1.7687 O.3     1  UNL1       -0.3258
     30 O          25.5069   73.8682    2.0856 O.3     1  UNL1       -0.3794
     31 O          23.7088   71.6323    1.9594 O.3     1  UNL1       -0.3794
     32 O          24.5293   76.1401    0.5815 O.3     1  UNL1       -0.3775
     33 C          24.2398   73.9020    1.4231 C.3     1  UNL1        0.1715
     34 C          23.2816   72.9747    2.1733 C.3     1  UNL1        0.1694
     35 C          23.7131   75.3359    1.4261 C.3     1  UNL1        0.1967
     36 C          21.8377   73.1598    1.6875 C.3     1  UNL1        0.1761
     37 C          22.2536   75.4024    0.9727 C.3     1  UNL1        0.2704
     38 H          25.8471   72.9606    2.0867 H       1  UNL1        0.2105
     39 H          24.6221   71.5290    2.2699 H       1  UNL1        0.2105
     40 H          25.4506   76.0898    0.8791 H       1  UNL1        0.2106
     41 O          20.3470   73.2006    3.5543 O.3     1  UNL1       -0.3794
     42 C          20.8445   72.3611    2.5287 C.3     1  UNL1        0.1693
     43 H          19.7133   72.7057    4.0976 H       1  UNL1        0.2105
@<TRIPOS>UNITY_ATOM_ATTR
2 1
charge -1
26 1
charge -1
@<TRIPOS>BOND
     1    25    28    1
     2    25    24    1
     3    25    26    1
     4    25    27    2
     5     1     4    1
     6     1    24    1
     7     1     2    1
     8     1     3    2
     9     6    11    1
    10     6    12    1
    11    29    36    1
    12    29    37    1
    13     7     9    1
    14     7    13    1
    15     8    10    1
    16     8    14    1
    17    28    37    1
    18     4     5    1
    19    30    33    1
    20    30    38    1
    21    31    34    1
    22    31    39    1
    23    32    35    1
    24    32    40    1
    25    41    42    1
    26    41    43    1
    27    15    19    2
    28    16    22    2
    29    17    12    1
    30    17    19   ar
    31    17    20   ar
    32    18    19   ar
    33    18    22   ar
    34    18    23    1
    35     9    10    1
    36     9    11    1
    37    10    12    1
    38    11     5    1
    39    33    34    1
    40    33    35    1
    41    34    36    1
    42    35    37    1
    43    36    42    1
    44    20    21   ar
    45    21    22   ar
@<TRIPOS>MOLECULE
*****
 43 45 0 0 0
SMALL
GASTEIGER

@<TRIPOS>ATOM
      1 P          22.1255   75.8050   -2.3485 P.3     1  UNL1        0.2189
      2 O          22.7727   77.2640   -2.0837 O.co2   1  UNL1       -0.4371
      3 O          20.8391   75.8130   -3.1208 O.2     1  UNL1       -0.5170
      4 O          22.0572   75.1374   -0.8763 O.3     1  UNL1       -0.3112
      5 C          21.0109   74.2237   -0.5962 C.3     1  UNL1        0.1811
      6 O          22.7694   72.6471   -1.0386 O.3     1  UNL1       -0.3308
      7 O          20.5959   70.6239   -1.4551 O.3     1  UNL1       -0.3794
      8 O          21.4612   70.0558    1.0678 O.3     1  UNL1       -0.3779
      9 C          20.6560   71.7054   -0.5265 C.3     1  UNL1        0.1713
     10 C          21.6160   71.3797    0.5985 C.3     1  UNL1        0.1895
     11 C          21.3534   72.8739   -1.2116 C.3     1  UNL1        0.1764
     12 C          22.9648   71.6122   -0.0610 C.3     1  UNL1        0.2383
     13 H          20.1541   69.8659   -1.0402 H       1  UNL1        0.2105
     14 H          20.5880   69.9583    1.4787 H       1  UNL1        0.2106
     15 O          24.5150   69.8623    1.5241 O.2     1  UNL1       -0.2464
     16 O          26.7761   73.3596    3.4984 O.2     1  UNL1       -0.2670
     17 N          23.9662   72.0383    0.8755 N.ar    1  UNL1       -0.2551
     18 N          25.6398   71.6051    2.5057 N.ar    1  UNL1       -0.2743
     19 C          24.6880   71.0789    1.6230 C.ar    1  UNL1        0.3323
     20 C          24.2242   73.3943    1.0449 C.ar    1  UNL1        0.0869
     21 C          25.1343   73.8799    1.8918 C.ar    1  UNL1        0.0795
     22 C          25.9318   72.9443    2.7107 C.ar    1  UNL1        0.2626
     23 H          26.1545   70.9554    3.0374 H       1  UNL1        0.1734
     24 O          23.3314   74.9960   -3.0587 O.3     1  UNL1       -0.2703
     25 P          23.3964   74.2108   -4.4702 P.3     1  UNL1        0.2208
     26 O          24.3526   72.9462   -4.1476 O.co2   1  UNL1       -0.4371
     27 O          23.8548   75.0554   -5.6236 O.2     1  UNL1       -0.5170
     28 O          21.9247   73.5734   -4.6512 O.3     1  UNL1       -0.2858
     29 O          20.5601   71.6446   -4.4662 O.3     1  UNL1       -0.3258
     30 O          20.8120   71.8825   -8.5809 O.3     1  UNL1       -0.3794
     31 O          18.3494   72.5634   -7.2693 O.3     1  UNL1       -0.3794
     32 O          23.1232   72.5082   -6.9542 O.3     1  UNL1       -0.3775
     33 C          20.7353   72.3961   -7.2483 C.3     1  UNL1        0.1715
     34 C          19.4312   71.9027   -6.6185 C.3     1  UNL1        0.1694
     35 C          21.9395   71.8980   -6.4513 C.3     1  UNL1        0.1967
     36 C          19.4018   72.1873   -5.1108 C.3     1  UNL1        0.1761
     37 C          21.7870   72.1882   -4.9571 C.3     1  UNL1        0.2704
     38 H          20.0505   72.1955   -9.0924 H       1  UNL1        0.2105
     39 H          18.3798   72.3759   -8.2207 H       1  UNL1        0.2105
     40 H          23.2084   72.3168   -7.9008 H       1  UNL1        0.2106
     41 O          17.7969   70.4183   -5.1710 O.3     1  UNL1       -0.3794
     42 C          18.1822   71.5645   -4.4349 C.3     1  UNL1        0.1693
     43 H          17.0219   70.0112   -4.7522 H       1  UNL1        0.2105
@<TRIPOS>UNITY_ATOM_ATTR
2 1
charge -1
26 1
charge -1
@<TRIPOS>BOND
     1    25    28    1
     2    25    24    1
     3    25    26    1
     4    25    27    2
     5     1     4    1
     6     1    24    1
     7     1     2    1
     8     1     3    2
     9     6    11    1
    10     6    12    1
    11    29    36    1
    12    29    37    1
    13     7     9    1
    14     7    13    1
    15     8    10    1
    16     8    14    1
    17    28    37    1
    18     4     5    1
    19    30    33    1
    20    30    38    1
    21    31    34    1
    22    31    39    1
    23    32    35    1
    24    32    40    1
    25    41    42    1
    26    41    43    1
    27    15    19    2
    28    16    22    2
    29    17    12    1
    30    17    19   ar
    31    17    20   ar
    32    18    19   ar
    33    18    22   ar
    34    18    23    1
    35     9    10    1
    36     9    11    1
    37    10    12    1
    38    11     5    1
    39    33    34    1
    40    33    35    1
    41    34    36    1
    42    35    37    1
    43    36    42    1
    44    20    21   ar
    45    21    22   ar
@<TRIPOS>MOLECULE
*****
 43 45 0 0 0
SMALL
GASTEIGER

@<TRIPOS>ATOM
      1 P          21.0018   74.6933   -4.3636 P.3     1  UNL1        0.2189
      2 O          20.7805   76.2930   -4.2666 O.co2   1  UNL1       -0.4371
      3 O          19.7995   73.8650   -4.0176 O.2     1  UNL1       -0.5170
      4 O          22.3202   74.4283   -3.4638 O.3     1  UNL1       -0.3112
      5 C          22.1523   73.9204   -2.1517 C.3     1  UNL1        0.1811
      6 O          23.4800   72.0099   -1.5509 O.3     1  UNL1       -0.3308
      7 O          20.9873   70.3896   -1.9409 O.3     1  UNL1       -0.3794
      8 O          21.1106   70.6470    0.7711 O.3     1  UNL1       -0.3779
      9 C          21.1333   71.7082   -1.4163 C.3     1  UNL1        0.1713
     10 C          21.7088   71.6564   -0.0164 C.3     1  UNL1        0.1895
     11 C          22.2464   72.4013   -2.1923 C.3     1  UNL1        0.1764
     12 C          23.1793   71.3900   -0.2899 C.3     1  UNL1        0.2383
     13 H          20.2816   69.9273   -1.4611 H       1  UNL1        0.2105
     14 H          20.1762   70.8620    0.9173 H       1  UNL1        0.2106
     15 O          24.6422   69.8650    1.5842 O.2     1  UNL1       -0.2464
     16 O          26.4251   73.6391    3.5384 O.2     1  UNL1       -0.2670
     17 N          24.0341   71.9482    0.7196 N.ar    1  UNL1       -0.2551
     18 N          25.5289   71.7455    2.5556 N.ar    1  UNL1       -0.2743
     19 C          24.7234   71.0948    1.6123 C.ar    1  UNL1        0.3323
     20 C          24.1823   73.3275    0.8170 C.ar    1  UNL1        0.0869
     21 C          24.9533   73.9324    1.7230 C.ar    1  UNL1        0.0795
     22 C          25.7078   73.1129    2.6931 C.ar    1  UNL1        0.2626
     23 H          26.0185   71.1711    3.1882 H       1  UNL1        0.1734
     24 O          21.5455   74.4925   -5.8726 O.3     1  UNL1       -0.2703
     25 P          21.8668   73.1511   -6.7155 P.3     1  UNL1        0.2208
     26 O          22.5861   72.1931   -5.6282 O.co2   1  UNL1       -0.4371
     27 O          22.6701   73.3853   -7.9620 O.2     1  UNL1       -0.5170
     28 O          20.4247   72.4714   -6.9670 O.3     1  UNL1       -0.2858
     29 O          19.8057   70.3978   -6.0007 O.3     1  UNL1       -0.3258
     30 O          17.3120   70.3627   -9.2917 O.3     1  UNL1       -0.3794
     31 O          16.2055   70.8062   -6.6789 O.3     1  UNL1       -0.3794
     32 O          20.0012   71.4073   -9.5289 O.3     1  UNL1       -0.3775
     33 C          18.0354   70.9585   -8.2115 C.3     1  UNL1        0.1715
     34 C          17.5348   70.3446   -6.9026 C.3     1  UNL1        0.1694
     35 C          19.5266   70.6845   -8.3981 C.3     1  UNL1        0.1967
     36 C          18.4405   70.7333   -5.7263 C.3     1  UNL1        0.1761
     37 C          20.3304   71.0615   -7.1523 C.3     1  UNL1        0.2704
     38 H          16.3645   70.5334   -9.1795 H       1  UNL1        0.2105
     39 H          15.6440   70.5548   -7.4291 H       1  UNL1        0.2105
     40 H          19.4846   71.1596  -10.3110 H       1  UNL1        0.2106
     41 O          16.8214   70.5329   -3.9806 O.3     1  UNL1       -0.3794
     42 C          18.0522   70.0059   -4.4409 C.3     1  UNL1        0.1693
     43 H          16.5616   70.0791   -3.1631 H       1  UNL1        0.2105
@<TRIPOS>UNITY_ATOM_ATTR
2 1
charge -1
26 1
charge -1
@<TRIPOS>BOND
     1    25    28    1
     2    25    24    1
     3    25    26    1
     4    25    27    2
     5     1     4    1
     6     1    24    1
     7     1     2    1
     8     1     3    2
     9     6    11    1
    10     6    12    1
    11    29    36    1
    12    29    37    1
    13     7     9    1
    14     7    13    1
    15     8    10    1
    16     8    14    1
    17    28    37    1
    18     4     5    1
    19    30    33    1
    20    30    38    1
    21    31    34    1
    22    31    39    1
    23    32    35    1
    24    32    40    1
    25    41    42    1
    26    41    43    1
    27    15    19    2
    28    16    22    2
    29    17    12    1
    30    17    19   ar
    31    17    20   ar
    32    18    19   ar
    33    18    22   ar
    34    18    23    1
    35     9    10    1
    36     9    11    1
    37    10    12    1
    38    11     5    1
    39    33    34    1
    40    33    35    1
    41    34    36    1
    42    35    37    1
    43    36    42    1
    44    20    21   ar
    45    21    22   ar
@<TRIPOS>MOLECULE
*****
 43 45 0 0 0
SMALL
GASTEIGER

@<TRIPOS>ATOM
      1 P          21.1439   72.9125   -4.3118 P.3     1  UNL1        0.2189
      2 O          21.0552   74.2143   -3.3553 O.co2   1  UNL1       -0.4371
      3 O          21.8650   73.1278   -5.6099 O.2     1  UNL1       -0.5170
      4 O          19.6090   72.4155   -4.4347 O.3     1  UNL1       -0.3112
      5 C          19.1745   71.3516   -3.6058 C.3     1  UNL1        0.1811
      6 O          17.2912   71.6064   -5.0762 O.3     1  UNL1       -0.3308
      7 O          15.8155   69.7967   -3.1952 O.3     1  UNL1       -0.3794
      8 O          16.4883   68.1145   -5.2334 O.3     1  UNL1       -0.3779
      9 C          17.1863   69.7641   -3.5894 C.3     1  UNL1        0.1713
     10 C          17.3143   69.2377   -5.0036 C.3     1  UNL1        0.1895
     11 C          17.6653   71.2025   -3.7408 C.3     1  UNL1        0.1764
     12 C          16.9017   70.4454   -5.8279 C.3     1  UNL1        0.2383
     13 H          15.4874   68.8892   -3.0918 H       1  UNL1        0.2105
     14 H          16.7911   67.3729   -4.6865 H       1  UNL1        0.2106
     15 O          15.5412   70.5888   -8.2990 O.2     1  UNL1       -0.2464
     16 O          19.4869   70.5743  -10.6807 O.2     1  UNL1       -0.2670
     17 N          17.5486   70.4808   -7.1092 N.ar    1  UNL1       -0.2551
     18 N          17.5069   70.5816   -9.4829 N.ar    1  UNL1       -0.2743
     19 C          16.7733   70.5519   -8.2900 C.ar    1  UNL1        0.3323
     20 C          18.9367   70.4455   -7.1859 C.ar    1  UNL1        0.0869
     21 C          19.6210   70.4732   -8.3314 C.ar    1  UNL1        0.0795
     22 C          18.8865   70.5473   -9.6108 C.ar    1  UNL1        0.2626
     23 H          16.9879   70.6307  -10.3183 H       1  UNL1        0.1734
     24 O          21.8105   71.7985   -3.3487 O.3     1  UNL1       -0.2703
     25 P          23.2511   71.7529   -2.6169 P.3     1  UNL1        0.2208
     26 O          23.8307   73.2460   -2.8453 O.co2   1  UNL1       -0.4371
     27 O          24.1542   70.6569   -3.1038 O.2     1  UNL1       -0.5170
     28 O          22.9071   71.6857   -1.0414 O.3     1  UNL1       -0.2858
     29 O          22.5692   73.6815    0.1913 O.3     1  UNL1       -0.3258
     30 O          23.5175   71.1370    3.3021 O.3     1  UNL1       -0.3794
     31 O          20.8068   72.0276    2.9748 O.3     1  UNL1       -0.3794
     32 O          24.9011   70.9007    0.7704 O.3     1  UNL1       -0.3775
     33 C          22.9447   71.4978    2.0423 C.3     1  UNL1        0.1715
     34 C          21.9126   72.6012    2.2830 C.3     1  UNL1        0.1694
     35 C          24.0524   71.9910    1.1133 C.3     1  UNL1        0.1967
     36 C          21.4497   73.2251    0.9596 C.3     1  UNL1        0.1761
     37 C          23.4832   72.6377   -0.1508 C.3     1  UNL1        0.2704
     38 H          22.8195   70.8225    3.8965 H       1  UNL1        0.2105
     39 H          21.1128   71.6368    3.8083 H       1  UNL1        0.2105
     40 H          25.2553   70.5002    1.5791 H       1  UNL1        0.2106
     41 O          20.7996   74.9567    2.4721 O.3     1  UNL1       -0.3794
     42 C          20.5406   74.4316    1.1831 C.3     1  UNL1        0.1693
     43 H          20.2282   75.7254    2.6282 H       1  UNL1        0.2105
@<TRIPOS>UNITY_ATOM_ATTR
2 1
charge -1
26 1
charge -1
@<TRIPOS>BOND
     1    25    28    1
     2    25    24    1
     3    25    26    1
     4    25    27    2
     5     1     4    1
     6     1    24    1
     7     1     2    1
     8     1     3    2
     9     6    11    1
    10     6    12    1
    11    29    36    1
    12    29    37    1
    13     7     9    1
    14     7    13    1
    15     8    10    1
    16     8    14    1
    17    28    37    1
    18     4     5    1
    19    30    33    1
    20    30    38    1
    21    31    34    1
    22    31    39    1
    23    32    35    1
    24    32    40    1
    25    41    42    1
    26    41    43    1
    27    15    19    2
    28    16    22    2
    29    17    12    1
    30    17    19   ar
    31    17    20   ar
    32    18    19   ar
    33    18    22   ar
    34    18    23    1
    35     9    10    1
    36     9    11    1
    37    10    12    1
    38    11     5    1
    39    33    34    1
    40    33    35    1
    41    34    36    1
    42    35    37    1
    43    36    42    1
    44    20    21   ar
    45    21    22   ar
@<TRIPOS>MOLECULE
*****
 43 45 0 0 0
SMALL
GASTEIGER

@<TRIPOS>ATOM
      1 P          16.2719   69.5033   -2.1958 P.3     1  UNL1        0.2189
      2 O          15.5670   69.7029   -3.6383 O.co2   1  UNL1       -0.4371
      3 O          16.9844   68.1954   -2.0142 O.2     1  UNL1       -0.5170
      4 O          15.0864   69.8103   -1.1384 O.3     1  UNL1       -0.3112
      5 C          14.5126   68.7243   -0.4318 C.3     1  UNL1        0.1811
      6 O          12.1425   69.0938   -0.2906 O.3     1  UNL1       -0.3308
      7 O          12.5395   69.2947    2.6747 O.3     1  UNL1       -0.3794
      8 O          11.5776   66.7608    2.3741 O.3     1  UNL1       -0.3779
      9 C          13.2003   68.4532    1.7309 C.3     1  UNL1        0.1713
     10 C          12.2805   67.3336    1.2904 C.3     1  UNL1        0.1895
     11 C          13.3787   69.2444    0.4411 C.3     1  UNL1        0.1764
     12 C          11.3640   68.0460    0.3102 C.3     1  UNL1        0.2383
     13 H          12.4147   68.8112    3.5069 H       1  UNL1        0.2105
     14 H          12.2039   66.3197    2.9690 H       1  UNL1        0.2106
     15 O           9.8001   68.8846   -1.8872 O.2     1  UNL1       -0.2464
     16 O           9.5689   64.6077   -3.5891 O.2     1  UNL1       -0.2670
     17 N          10.8817   67.1728   -0.7224 N.ar    1  UNL1       -0.2551
     18 N           9.6864   66.7544   -2.7330 N.ar    1  UNL1       -0.2743
     19 C          10.1032   67.6943   -1.7817 C.ar    1  UNL1        0.3323
     20 C          11.1818   65.8156   -0.6783 C.ar    1  UNL1        0.0869
     21 C          10.7756   64.9322   -1.5926 C.ar    1  UNL1        0.0795
     22 C           9.9577   65.3953   -2.7322 C.ar    1  UNL1        0.2626
     23 H           9.1424   67.0948   -3.4800 H       1  UNL1        0.1734
     24 O          17.2179   70.8080   -2.0699 O.3     1  UNL1       -0.2703
     25 P          18.3986   71.3594   -3.0264 P.3     1  UNL1        0.2208
     26 O          19.6235   70.3461   -2.7256 O.co2   1  UNL1       -0.4371
     27 O          18.7298   72.8093   -2.8217 O.2     1  UNL1       -0.5170
     28 O          17.9198   70.9874   -4.5222 O.3     1  UNL1       -0.2858
     29 O          19.1939   72.0394   -6.2212 O.3     1  UNL1       -0.3258
     30 O          16.0481   70.6608   -8.5135 O.3     1  UNL1       -0.3794
     31 O          18.6164   69.3923   -8.7208 O.3     1  UNL1       -0.3794
     32 O          15.5535   71.6941   -5.8550 O.3     1  UNL1       -0.3775
     33 C          17.0023   70.6164   -7.4491 C.3     1  UNL1        0.1715
     34 C          18.4045   70.6372   -8.0608 C.3     1  UNL1        0.1694
     35 C          16.7938   71.8268   -6.5409 C.3     1  UNL1        0.1967
     36 C          19.4752   70.8604   -6.9843 C.3     1  UNL1        0.1761
     37 C          17.9392   71.9855   -5.5394 C.3     1  UNL1        0.2704
     38 H          16.1747   69.8947   -9.0935 H       1  UNL1        0.2105
     39 H          17.9333   69.2634   -9.3976 H       1  UNL1        0.2105
     40 H          14.8365   71.5947   -6.5000 H       1  UNL1        0.2106
     41 O          20.9309   72.3228   -8.1889 O.3     1  UNL1       -0.3794
     42 C          20.8655   71.0419   -7.5895 C.3     1  UNL1        0.1693
     43 H          21.8104   72.4525   -8.5781 H       1  UNL1        0.2105
@<TRIPOS>UNITY_ATOM_ATTR
2 1
charge -1
26 1
charge -1
@<TRIPOS>BOND
     1    25    28    1
     2    25    24    1
     3    25    26    1
     4    25    27    2
     5     1     4    1
     6     1    24    1
     7     1     2    1
     8     1     3    2
     9     6    11    1
    10     6    12    1
    11    29    36    1
    12    29    37    1
    13     7     9    1
    14     7    13    1
    15     8    10    1
    16     8    14    1
    17    28    37    1
    18     4     5    1
    19    30    33    1
    20    30    38    1
    21    31    34    1
    22    31    39    1
    23    32    35    1
    24    32    40    1
    25    41    42    1
    26    41    43    1
    27    15    19    2
    28    16    22    2
    29    17    12    1
    30    17    19   ar
    31    17    20   ar
    32    18    19   ar
    33    18    22   ar
    34    18    23    1
    35     9    10    1
    36     9    11    1
    37    10    12    1
    38    11     5    1
    39    33    34    1
    40    33    35    1
    41    34    36    1
    42    35    37    1
    43    36    42    1
    44    20    21   ar
    45    21    22   ar
@<TRIPOS>MOLECULE
*****
 43 45 0 0 0
SMALL
GASTEIGER

@<TRIPOS>ATOM
      1 P          21.8154   72.5321   -5.5724 P.3     1  UNL1        0.2189
      2 O          21.2275   74.0110   -5.2817 O.co2   1  UNL1       -0.4371
      3 O          23.0504   72.4970   -6.4239 O.2     1  UNL1       -0.5170
      4 O          20.5428   71.7142   -6.1464 O.3     1  UNL1       -0.3112
      5 C          20.0559   72.0397   -7.4367 C.3     1  UNL1        0.1811
      6 O          18.8610   70.0029   -6.9924 O.3     1  UNL1       -0.3308
      7 O          18.1251   70.0205   -9.8991 O.3     1  UNL1       -0.3794
      8 O          15.8629   70.9688   -8.7075 O.3     1  UNL1       -0.3779
      9 C          18.2721   71.1176   -8.9990 C.3     1  UNL1        0.1713
     10 C          17.0949   71.1790   -8.0482 C.3     1  UNL1        0.1895
     11 C          19.4261   70.7997   -8.0564 C.3     1  UNL1        0.1764
     12 C          17.4274   70.0711   -7.0632 C.3     1  UNL1        0.2383
     13 H          17.3940   70.2007  -10.5114 H       1  UNL1        0.2105
     14 H          15.6965   71.6998   -9.3229 H       1  UNL1        0.2106
     15 O          16.3333   68.1006   -5.3608 O.2     1  UNL1       -0.2464
     16 O          15.4617   71.1846   -2.0486 O.2     1  UNL1       -0.2670
     17 N          16.9075   70.3312   -5.7504 N.ar    1  UNL1       -0.2551
     18 N          15.9004   69.6378   -3.7129 N.ar    1  UNL1       -0.2743
     19 C          16.3794   69.2712   -4.9771 C.ar    1  UNL1        0.3323
     20 C          16.9248   71.6255   -5.2421 C.ar    1  UNL1        0.0869
     21 C          16.4630   71.9587   -4.0351 C.ar    1  UNL1        0.0795
     22 C          15.8946   70.9101   -3.1636 C.ar    1  UNL1        0.2626
     23 H          15.5275   68.9158   -3.1566 H       1  UNL1        0.1734
     24 O          22.0033   71.9175   -4.0892 O.3     1  UNL1       -0.2703
     25 P          23.2425   72.0010   -3.0547 P.3     1  UNL1        0.2208
     26 O          23.9097   73.4363   -3.3900 O.co2   1  UNL1       -0.4371
     27 O          24.1928   70.8417   -3.1380 O.2     1  UNL1       -0.5170
     28 O          22.5546   72.1993   -1.6082 O.3     1  UNL1       -0.2858
     29 O          23.4645   70.6522   -0.0606 O.3     1  UNL1       -0.3258
     30 O          20.4524   72.2328    2.2802 O.3     1  UNL1       -0.3794
     31 O          23.1861   72.9159    2.8354 O.3     1  UNL1       -0.3794
     32 O          19.9957   71.7673   -0.5401 O.3     1  UNL1       -0.3775
     33 C          21.4830   72.2609    1.2890 C.3     1  UNL1        0.1715
     34 C          22.8010   71.8628    1.9562 C.3     1  UNL1        0.1694
     35 C          21.1282   71.2810    0.1722 C.3     1  UNL1        0.1967
     36 C          23.8967   71.6110    0.9117 C.3     1  UNL1        0.1761
     37 C          22.3029   71.0645   -0.7835 C.3     1  UNL1        0.2704
     38 H          20.6713   72.8533    2.9920 H       1  UNL1        0.2105
     39 H          22.4854   73.0651    3.4896 H       1  UNL1        0.2105
     40 H          19.2589   71.8999    0.0759 H       1  UNL1        0.2106
     41 O          24.8142   70.2220    2.6258 O.3     1  UNL1       -0.3794
     42 C          25.1736   71.0610    1.5435 C.3     1  UNL1        0.1693
     43 H          25.6170   69.8645    3.0374 H       1  UNL1        0.2105
@<TRIPOS>UNITY_ATOM_ATTR
2 1
charge -1
26 1
charge -1
@<TRIPOS>BOND
     1    25    28    1
     2    25    24    1
     3    25    26    1
     4    25    27    2
     5     1     4    1
     6     1    24    1
     7     1     2    1
     8     1     3    2
     9     6    11    1
    10     6    12    1
    11    29    36    1
    12    29    37    1
    13     7     9    1
    14     7    13    1
    15     8    10    1
    16     8    14    1
    17    28    37    1
    18     4     5    1
    19    30    33    1
    20    30    38    1
    21    31    34    1
    22    31    39    1
    23    32    35    1
    24    32    40    1
    25    41    42    1
    26    41    43    1
    27    15    19    2
    28    16    22    2
    29    17    12    1
    30    17    19   ar
    31    17    20   ar
    32    18    19   ar
    33    18    22   ar
    34    18    23    1
    35     9    10    1
    36     9    11    1
    37    10    12    1
    38    11     5    1
    39    33    34    1
    40    33    35    1
    41    34    36    1
    42    35    37    1
    43    36    42    1
    44    20    21   ar
    45    21    22   ar
@<TRIPOS>MOLECULE
*****
 43 45 0 0 0
SMALL
GASTEIGER

@<TRIPOS>ATOM
      1 P          23.6547   72.3775   -3.6364 P.3     1  UNL1        0.2189
      2 O          24.7488   73.5628   -3.7608 O.co2   1  UNL1       -0.4371
      3 O          24.1812   71.0841   -3.0877 O.2     1  UNL1       -0.5170
      4 O          22.9979   72.2988   -5.1130 O.3     1  UNL1       -0.3112
      5 C          21.5899   72.1823   -5.2213 C.3     1  UNL1        0.1811
      6 O          20.4331   70.3207   -6.2064 O.3     1  UNL1       -0.3308
      7 O          20.6192   71.8171   -8.7981 O.3     1  UNL1       -0.3794
      8 O          18.0517   72.2997   -8.0161 O.3     1  UNL1       -0.3779
      9 C          20.4226   72.3205   -7.4778 C.3     1  UNL1        0.1713
     10 C          19.0100   72.0362   -7.0116 C.3     1  UNL1        0.1895
     11 C          21.2500   71.4691   -6.5229 C.3     1  UNL1        0.1764
     12 C          19.0880   70.5626   -6.6502 C.3     1  UNL1        0.2383
     13 H          20.1007   72.3454   -9.4259 H       1  UNL1        0.2105
     14 H          18.0399   73.2498   -8.2107 H       1  UNL1        0.2106
     15 O          16.4058   69.7758   -7.0556 O.2     1  UNL1       -0.2464
     16 O          15.6917   69.2265   -2.5357 O.2     1  UNL1       -0.2670
     17 N          18.1787   70.2080   -5.5972 N.ar    1  UNL1       -0.2551
     18 N          16.0525   69.5027   -4.8048 N.ar    1  UNL1       -0.2743
     19 C          16.8522   69.8281   -5.9077 C.ar    1  UNL1        0.3323
     20 C          18.6050   70.2388   -4.2739 C.ar    1  UNL1        0.0869
     21 C          17.8295   69.9269   -3.2334 C.ar    1  UNL1        0.0795
     22 C          16.4298   69.5192   -3.4713 C.ar    1  UNL1        0.2626
     23 H          15.1243   69.2354   -4.9969 H       1  UNL1        0.1734
     24 O          22.4830   73.0557   -2.7533 O.3     1  UNL1       -0.2703
     25 P          22.5008   74.3419   -1.7743 P.3     1  UNL1        0.2208
     26 O          20.9696   74.8625   -1.8176 O.co2   1  UNL1       -0.4371
     27 O          23.5191   75.3817   -2.1428 O.2     1  UNL1       -0.5170
     28 O          22.6801   73.7256   -0.2934 O.3     1  UNL1       -0.2858
     29 O          23.5083   71.6377    0.4624 O.3     1  UNL1       -0.3258
     30 O          20.3837   72.1091    3.1204 O.3     1  UNL1       -0.3794
     31 O          23.0867   72.4177    4.0404 O.3     1  UNL1       -0.3794
     32 O          20.0698   72.9309    0.3625 O.3     1  UNL1       -0.3775
     33 C          21.4632   72.5425    2.2884 C.3     1  UNL1        0.1715
     34 C          22.7452   71.8627    2.7733 C.3     1  UNL1        0.1694
     35 C          21.1641   72.1563    0.8411 C.3     1  UNL1        0.1967
     36 C          23.8921   72.0661    1.7742 C.3     1  UNL1        0.1761
     37 C          22.3854   72.3509   -0.0593 C.3     1  UNL1        0.2704
     38 H          20.5671   72.3518    4.0407 H       1  UNL1        0.2105
     39 H          22.3540   72.2830    4.6619 H       1  UNL1        0.2105
     40 H          19.3030   72.7987    0.9407 H       1  UNL1        0.2106
     41 O          24.8122   69.8881    2.1183 O.3     1  UNL1       -0.3794
     42 C          25.1346   71.2660    2.1591 C.3     1  UNL1        0.1693
     43 H          25.5938   69.3665    2.3607 H       1  UNL1        0.2105
@<TRIPOS>UNITY_ATOM_ATTR
2 1
charge -1
26 1
charge -1
@<TRIPOS>BOND
     1    25    28    1
     2    25    24    1
     3    25    26    1
     4    25    27    2
     5     1     4    1
     6     1    24    1
     7     1     2    1
     8     1     3    2
     9     6    11    1
    10     6    12    1
    11    29    36    1
    12    29    37    1
    13     7     9    1
    14     7    13    1
    15     8    10    1
    16     8    14    1
    17    28    37    1
    18     4     5    1
    19    30    33    1
    20    30    38    1
    21    31    34    1
    22    31    39    1
    23    32    35    1
    24    32    40    1
    25    41    42    1
    26    41    43    1
    27    15    19    2
    28    16    22    2
    29    17    12    1
    30    17    19   ar
    31    17    20   ar
    32    18    19   ar
    33    18    22   ar
    34    18    23    1
    35     9    10    1
    36     9    11    1
    37    10    12    1
    38    11     5    1
    39    33    34    1
    40    33    35    1
    41    34    36    1
    42    35    37    1
    43    36    42    1
    44    20    21   ar
    45    21    22   ar
@<TRIPOS>MOLECULE
*****
 43 45 0 0 0
SMALL
GASTEIGER

@<TRIPOS>ATOM
      1 P          20.9271   74.0739   -0.4304 P.3     1  UNL1        0.2189
      2 O          19.3590   74.1511   -0.0401 O.co2   1  UNL1       -0.4371
      3 O          21.7857   75.1419    0.1807 O.2     1  UNL1       -0.5170
      4 O          20.9225   74.0158   -2.0474 O.3     1  UNL1       -0.3112
      5 C          20.2876   72.9199   -2.6827 C.3     1  UNL1        0.1811
      6 O          20.6826   70.8115   -3.7655 O.3     1  UNL1       -0.3308
      7 O          23.5579   71.6464   -3.9285 O.3     1  UNL1       -0.3794
      8 O          22.6481   72.1531   -6.4488 O.3     1  UNL1       -0.3779
      9 C          22.3794   72.4412   -4.0496 C.3     1  UNL1        0.1713
     10 C          21.7151   72.1961   -5.3884 C.3     1  UNL1        0.1895
     11 C          21.3429   71.8951   -3.0755 C.3     1  UNL1        0.1764
     12 C          21.0283   70.8604   -5.1594 C.3     1  UNL1        0.2383
     13 H          24.2346   71.9764   -4.5409 H       1  UNL1        0.2105
     14 H          23.0578   73.0259   -6.5547 H       1  UNL1        0.2106
     15 O          20.9662   69.9215   -7.8226 O.2     1  UNL1       -0.2464
     16 O          16.3843   70.3572   -8.0627 O.2     1  UNL1       -0.2670
     17 N          19.8328   70.7181   -5.9416 N.ar    1  UNL1       -0.2551
     18 N          18.6848   70.1390   -7.9399 N.ar    1  UNL1       -0.2743
     19 C          19.9109   70.2385   -7.2699 C.ar    1  UNL1        0.3323
     20 C          18.6004   71.0520   -5.3907 C.ar    1  UNL1        0.0869
     21 C          17.4405   70.9527   -6.0434 C.ar    1  UNL1        0.0795
     22 C          17.4343   70.4598   -7.4359 C.ar    1  UNL1        0.2626
     23 H          18.7146   69.8076   -8.8667 H       1  UNL1        0.1734
     24 O          21.3315   72.5653   -0.0139 O.3     1  UNL1       -0.2703
     25 P          21.4356   71.8558    1.4349 P.3     1  UNL1        0.2208
     26 O          21.4728   70.2791    1.0740 O.co2   1  UNL1       -0.4371
     27 O          20.3463   72.2467    2.3912 O.2     1  UNL1       -0.5170
     28 O          22.9285   72.1919    1.9479 O.3     1  UNL1       -0.2858
     29 O          24.5378   73.5121    0.8149 O.3     1  UNL1       -0.3258
     30 O          27.0789   70.9239    2.7885 O.3     1  UNL1       -0.3794
     31 O          26.8770   73.6528    3.6605 O.3     1  UNL1       -0.3794
     32 O          24.5871   69.9430    1.6894 O.3     1  UNL1       -0.3775
     33 C          25.9071   71.7273    2.6247 C.3     1  UNL1        0.1715
     34 C          26.3454   73.1796    2.4261 C.3     1  UNL1        0.1694
     35 C          25.1268   71.2301    1.4093 C.3     1  UNL1        0.1967
     36 C          25.1683   74.0574    1.9798 C.3     1  UNL1        0.1761
     37 C          24.0100   72.2001    1.0197 C.3     1  UNL1        0.2704
     38 H          27.5786   71.2340    3.5589 H       1  UNL1        0.2105
     39 H          27.6192   73.0897    3.9313 H       1  UNL1        0.2105
     40 H          25.3040   69.3381    1.9344 H       1  UNL1        0.2106
     41 O          24.8621   75.9147    0.5082 O.3     1  UNL1       -0.3794
     42 C          25.6139   75.4740    1.6240 C.3     1  UNL1        0.1693
     43 H          25.1348   76.8152    0.2707 H       1  UNL1        0.2105
@<TRIPOS>UNITY_ATOM_ATTR
2 1
charge -1
26 1
charge -1
@<TRIPOS>BOND
     1    25    28    1
     2    25    24    1
     3    25    26    1
     4    25    27    2
     5     1     4    1
     6     1    24    1
     7     1     2    1
     8     1     3    2
     9     6    11    1
    10     6    12    1
    11    29    36    1
    12    29    37    1
    13     7     9    1
    14     7    13    1
    15     8    10    1
    16     8    14    1
    17    28    37    1
    18     4     5    1
    19    30    33    1
    20    30    38    1
    21    31    34    1
    22    31    39    1
    23    32    35    1
    24    32    40    1
    25    41    42    1
    26    41    43    1
    27    15    19    2
    28    16    22    2
    29    17    12    1
    30    17    19   ar
    31    17    20   ar
    32    18    19   ar
    33    18    22   ar
    34    18    23    1
    35     9    10    1
    36     9    11    1
    37    10    12    1
    38    11     5    1
    39    33    34    1
    40    33    35    1
    41    34    36    1
    42    35    37    1
    43    36    42    1
    44    20    21   ar
    45    21    22   ar
@<TRIPOS>MOLECULE
*****
 43 45 0 0 0
SMALL
GASTEIGER

@<TRIPOS>ATOM
      1 P          23.4846   72.3239   -3.4410 P.3     1  UNL1        0.2189
      2 O          24.1130   70.8620   -3.1491 O.co2   1  UNL1       -0.4371
      3 O          24.4652   73.3494   -3.9291 O.2     1  UNL1       -0.5170
      4 O          22.7058   72.6924   -2.0715 O.3     1  UNL1       -0.3112
      5 C          23.4543   72.7850   -0.8720 C.3     1  UNL1        0.1811
      6 O          24.5115   71.2692    0.6638 O.3     1  UNL1       -0.3308
      7 O          21.7644   70.1952    1.2032 O.3     1  UNL1       -0.3794
      8 O          22.2007   71.8175    3.3513 O.3     1  UNL1       -0.3779
      9 C          22.1726   71.5359    0.9365 C.3     1  UNL1        0.1713
     10 C          22.8707   72.1234    2.1453 C.3     1  UNL1        0.1895
     11 C          23.2985   71.4885   -0.0890 C.3     1  UNL1        0.1764
     12 C          24.2441   71.4794    2.0599 C.3     1  UNL1        0.2383
     13 H          21.0457   70.1999    1.8554 H       1  UNL1        0.2105
     14 H          21.3325   72.2500    3.3576 H       1  UNL1        0.2106
     15 O          26.9235   70.6673    2.4324 O.2     1  UNL1       -0.2464
     16 O          28.1121   74.7597    4.1878 O.2     1  UNL1       -0.2670
     17 N          25.2749   72.3125    2.6119 N.ar    1  UNL1       -0.2551
     18 N          27.5132   72.7057    3.3060 N.ar    1  UNL1       -0.2743
     19 C          26.5882   71.8081    2.7576 C.ar    1  UNL1        0.3323
     20 C          24.9792   73.6143    3.0018 C.ar    1  UNL1        0.0869
     21 C          25.8725   74.4571    3.5242 C.ar    1  UNL1        0.0795
     22 C          27.2675   74.0084    3.7100 C.ar    1  UNL1        0.2626
     23 H          28.4345   72.3761    3.4173 H       1  UNL1        0.1734
     24 O          22.2794   72.0028   -4.4693 O.3     1  UNL1       -0.2703
     25 P          21.7404   72.8136   -5.7596 P.3     1  UNL1        0.2208
     26 O          22.6764   72.2654   -6.9599 O.co2   1  UNL1       -0.4371
     27 O          21.7521   74.3061   -5.5975 O.2     1  UNL1       -0.5170
     28 O          20.2843   72.1847   -6.0584 O.3     1  UNL1       -0.2858
     29 O          19.4388   70.0269   -5.5630 O.3     1  UNL1       -0.3258
     30 O          17.5396   70.6669   -9.1734 O.3     1  UNL1       -0.3794
     31 O          16.0221   70.7596   -6.7369 O.3     1  UNL1       -0.3794
     32 O          20.2648   71.5672   -8.7958 O.3     1  UNL1       -0.3775
     33 C          18.0897   71.0386   -7.9066 C.3     1  UNL1        0.1715
     34 C          17.3532   70.2576   -6.8163 C.3     1  UNL1        0.1694
     35 C          19.5804   70.7056   -7.8926 C.3     1  UNL1        0.1967
     36 C          18.0593   70.3986   -5.4610 C.3     1  UNL1        0.1761
     37 C          20.1739   70.8304   -6.4882 C.3     1  UNL1        0.2704
     38 H          16.5933   70.8761   -9.1890 H       1  UNL1        0.2105
     39 H          15.5876   70.6652   -7.5991 H       1  UNL1        0.2105
     40 H          19.8800   71.4788   -9.6812 H       1  UNL1        0.2106
     41 O          16.6398   68.5236   -5.0388 O.3     1  UNL1       -0.3794
     42 C          17.4336   69.5028   -4.3943 C.3     1  UNL1        0.1693
     43 H          16.2355   67.9459   -4.3721 H       1  UNL1        0.2105
@<TRIPOS>UNITY_ATOM_ATTR
2 1
charge -1
26 1
charge -1
@<TRIPOS>BOND
     1    25    28    1
     2    25    24    1
     3    25    26    1
     4    25    27    2
     5     1     4    1
     6     1    24    1
     7     1     2    1
     8     1     3    2
     9     6    11    1
    10     6    12    1
    11    29    36    1
    12    29    37    1
    13     7     9    1
    14     7    13    1
    15     8    10    1
    16     8    14    1
    17    28    37    1
    18     4     5    1
    19    30    33    1
    20    30    38    1
    21    31    34    1
    22    31    39    1
    23    32    35    1
    24    32    40    1
    25    41    42    1
    26    41    43    1
    27    15    19    2
    28    16    22    2
    29    17    12    1
    30    17    19   ar
    31    17    20   ar
    32    18    19   ar
    33    18    22   ar
    34    18    23    1
    35     9    10    1
    36     9    11    1
    37    10    12    1
    38    11     5    1
    39    33    34    1
    40    33    35    1
    41    34    36    1
    42    35    37    1
    43    36    42    1
    44    20    21   ar
    45    21    22   ar
