@<TRIPOS>MOLECULE
UD1
 46 48 0 0 0
SMALL
GASTEIGER

@<TRIPOS>ATOM
      1 P          20.7001   71.3995   -2.3565 P.3     1  UNL1        0.2189
      2 O          20.9129   72.7291   -2.9694 O.2     1  UNL1       -0.5170
      3 O          22.0333   70.5122   -2.5230 O.3     1  UNL1       -0.4371
      4 O          19.4707   70.6619   -3.0896 O.3     1  UNL1       -0.3112
      5 C          18.2727   71.1683   -2.4992 C.3     1  UNL1        0.1811
      6 C          16.8325   70.6088   -5.7457 C.3     1  UNL1        0.2383
      7 C          16.9015   69.2005   -5.1037 C.3     1  UNL1        0.1895
      8 O          15.8404   68.3704   -5.5772 O.3     1  UNL1       -0.3779
      9 C          16.7235   69.5205   -3.5967 C.3     1  UNL1        0.1713
     10 C          17.1114   71.0073   -3.4813 C.3     1  UNL1        0.1764
     11 O          17.5125   71.4494   -4.7894 O.3     1  UNL1       -0.3308
     12 O          15.3654   69.3188   -3.1994 O.3     1  UNL1       -0.3794
     13 H          15.9404   67.5124   -5.1420 H       1  UNL1        0.2106
     14 H          15.1659   68.3854   -3.3509 H       1  UNL1        0.2105
     15 N          17.5262   70.6270   -7.0340 N.ar    1  UNL1       -0.2551
     16 C          16.8236   70.4837   -8.1712 C.ar    1  UNL1        0.3323
     17 N          17.4349   70.5004   -9.3704 N.ar    1  UNL1       -0.2743
     18 C          18.7723   70.6530   -9.4493 C.ar    1  UNL1        0.2626
     19 C          19.5248   70.7989   -8.2597 C.ar    1  UNL1        0.0795
     20 C          18.8856   70.7838   -7.0704 C.ar    1  UNL1        0.0869
     21 O          15.6168   70.3452   -8.1164 O.2     1  UNL1       -0.2464
     22 O          19.3266   70.6635  -10.5328 O.2     1  UNL1       -0.2670
     23 H          16.9119   70.4004  -10.1808 H       1  UNL1        0.1734
     24 O          20.3641   71.5768   -0.7931 O.3     1  UNL1       -0.2703
     25 P          21.7291   71.2941    0.0108 P.3     1  UNL1        0.2208
     26 O          22.7816   70.8700   -0.9385 O.2     1  UNL1       -0.5170
     27 O          21.4832   70.1288    1.0941 O.3     1  UNL1       -0.4371
     28 O          22.1967   72.6366    0.7656 O.3     1  UNL1       -0.2865
     29 C          22.0809   72.3856    2.1673 C.3     1  UNL1        0.2611
     30 C          22.0329   73.7184    2.9167 C.3     1  UNL1        0.1582
     31 C          23.3093   74.5108    2.6124 C.3     1  UNL1        0.1625
     32 C          24.5213   73.6281    2.9288 C.3     1  UNL1        0.1686
     33 C          24.3830   72.3032    2.1760 C.3     1  UNL1        0.1760
     34 O          23.3461   75.6882    3.4209 O.3     1  UNL1       -0.3801
     35 O          25.7170   74.2920    2.5151 O.3     1  UNL1       -0.3794
     36 O          23.2039   71.6246    2.6068 O.3     1  UNL1       -0.3263
     37 H          24.1630   76.1552    3.1973 H       1  UNL1        0.2105
     38 H          26.4534   73.7026    2.7315 H       1  UNL1        0.2105
     39 C          19.7346   74.4694    3.2134 C.2     1  UNL1        0.2231
     40 C          18.5314   75.2577    2.7626 C.3     1  UNL1        0.0946
     41 N          20.8640   74.4844    2.4795 N.am    1  UNL1       -0.2994
     42 O          19.6859   73.8208    4.2367 O.2     1  UNL1       -0.2751
     43 H          20.9032   75.0032    1.6604 H       1  UNL1        0.1496
     44 C          25.6049   71.4269    2.4596 C.3     1  UNL1        0.1693
     45 O          25.1934   70.0654    2.5979 O.3     1  UNL1       -0.3794
     46 H          25.9909   69.5488    2.7756 H       1  UNL1        0.2105
@<TRIPOS>BOND
     1    29    30    1
     2    29    28    1
     3    29    36    1
     4    30    31    1
     5    30    41    1
     6    31    32    1
     7    31    34    1
     8    32    33    1
     9    32    35    1
    10    33    44    1
    11    33    36    1
    12    44    45    1
    13    39    40    1
    14    39    41   am
    15    39    42    2
    16    41    43    1
    17    28    25    1
    18    34    37    1
    19    35    38    1
    20    45    46    1
    21    15    16   ar
    22    15    20   ar
    23    15     6    1
    24    16    17   ar
    25    16    21    2
    26    17    18   ar
    27    17    23    1
    28    18    19   ar
    29    18    22    2
    30    19    20   ar
    31     6     7    1
    32     6    11    1
    33     7     8    1
    34     7     9    1
    35     8    13    1
    36     9    10    1
    37     9    12    1
    38    10    11    1
    39    10     5    1
    40    12    14    1
    41     5     4    1
    42     4     1    1
    43     1     2    2
    44     1     3    1
    45     1    24    1
    46    24    25    1
    47    25    26    2
    48    25    27    1
@<TRIPOS>MOLECULE
UD1
 46 48 0 0 0
SMALL
GASTEIGER

@<TRIPOS>ATOM
      1 P          20.9036   71.6207   -2.3705 P.3     1  UNL1        0.2189
      2 O          20.1485   72.2488   -1.2642 O.2     1  UNL1       -0.5170
      3 O          21.4353   72.7625   -3.3737 O.3     1  UNL1       -0.4371
      4 O          19.9395   70.6103   -3.1719 O.3     1  UNL1       -0.3112
      5 C          18.7476   70.4732   -2.3967 C.3     1  UNL1        0.1811
      6 C          17.0755   70.4671   -5.5797 C.3     1  UNL1        0.2383
      7 C          16.9577   69.0066   -5.0766 C.3     1  UNL1        0.1895
      8 O          15.7581   68.3966   -5.5542 O.3     1  UNL1       -0.3779
      9 C          16.9080   69.1952   -3.5380 C.3     1  UNL1        0.1713
     10 C          17.5271   70.5879   -3.3114 C.3     1  UNL1        0.1764
     11 O          17.9251   71.0954   -4.5964 O.3     1  UNL1       -0.3308
     12 O          15.5570   69.1594   -3.0730 O.3     1  UNL1       -0.3794
     13 H          15.7458   67.4937   -5.2076 H       1  UNL1        0.2106
     14 H          15.2077   68.2865   -3.2967 H       1  UNL1        0.2105
     15 N          17.6975   70.5119   -6.9035 N.ar    1  UNL1       -0.2551
     16 C          16.9270   70.4591   -8.0039 C.ar    1  UNL1        0.3323
     17 N          17.4717   70.5024   -9.2342 N.ar    1  UNL1       -0.2743
     18 C          18.8089   70.5907   -9.3826 C.ar    1  UNL1        0.2626
     19 C          19.6323   70.6410   -8.2326 C.ar    1  UNL1        0.0795
     20 C          19.0593   70.6013   -7.0105 C.ar    1  UNL1        0.0869
     21 O          15.7193   70.3794   -7.8864 O.2     1  UNL1       -0.2464
     22 O          19.3028   70.6250  -10.4945 O.2     1  UNL1       -0.2670
     23 H          16.9005   70.4680  -10.0169 H       1  UNL1        0.1734
     24 O          22.1552   70.8061   -1.7715 O.3     1  UNL1       -0.2703
     25 P          22.2987   71.2426   -0.2293 P.3     1  UNL1        0.2208
     26 O          23.5779   70.7319    0.3108 O.2     1  UNL1       -0.5170
     27 O          21.0757   70.6285    0.6190 O.3     1  UNL1       -0.4371
     28 O          22.2729   72.8481   -0.1200 O.3     1  UNL1       -0.2865
     29 C          23.6256   73.2932   -0.2351 C.3     1  UNL1        0.2611
     30 C          24.0067   74.0808    1.0196 C.3     1  UNL1        0.1582
     31 C          23.0557   75.2734    1.1708 C.3     1  UNL1        0.1625
     32 C          23.0678   76.0784   -0.1330 C.3     1  UNL1        0.1686
     33 C          22.7545   75.1404   -1.3006 C.3     1  UNL1        0.1760
     34 O          23.4921   76.0998    2.2517 O.3     1  UNL1       -0.3801
     35 O          22.0802   77.1089   -0.0677 O.3     1  UNL1       -0.3794
     36 O          23.7543   74.1257   -1.3856 O.3     1  UNL1       -0.3263
     37 H          22.8670   76.8353    2.3110 H       1  UNL1        0.2105
     38 H          22.1213   77.5893   -0.9067 H       1  UNL1        0.2105
     39 C          22.7716   73.2201    2.9348 C.2     1  UNL1        0.2231
     40 C          22.6592   72.3277    4.1444 C.3     1  UNL1        0.0946
     41 N          23.8969   73.2137    2.1945 N.am    1  UNL1       -0.2994
     42 O          21.8490   73.9445    2.6280 O.2     1  UNL1       -0.2751
     43 H          24.6354   72.6342    2.4399 H       1  UNL1        0.1496
     44 C          22.7321   75.9409   -2.6044 C.3     1  UNL1        0.1693
     45 O          23.8787   75.6065   -3.3890 O.3     1  UNL1       -0.3794
     46 H          23.8263   76.1314   -4.1991 H       1  UNL1        0.2105
@<TRIPOS>BOND
     1    29    30    1
     2    29    28    1
     3    29    36    1
     4    30    31    1
     5    30    41    1
     6    31    32    1
     7    31    34    1
     8    32    33    1
     9    32    35    1
    10    33    44    1
    11    33    36    1
    12    44    45    1
    13    39    40    1
    14    39    41   am
    15    39    42    2
    16    41    43    1
    17    28    25    1
    18    34    37    1
    19    35    38    1
    20    45    46    1
    21    15    16   ar
    22    15    20   ar
    23    15     6    1
    24    16    17   ar
    25    16    21    2
    26    17    18   ar
    27    17    23    1
    28    18    19   ar
    29    18    22    2
    30    19    20   ar
    31     6     7    1
    32     6    11    1
    33     7     8    1
    34     7     9    1
    35     8    13    1
    36     9    10    1
    37     9    12    1
    38    10    11    1
    39    10     5    1
    40    12    14    1
    41     5     4    1
    42     4     1    1
    43     1     2    2
    44     1     3    1
    45     1    24    1
    46    24    25    1
    47    25    26    2
    48    25    27    1
@<TRIPOS>MOLECULE
UD1
 46 48 0 0 0
SMALL
GASTEIGER

@<TRIPOS>ATOM
      1 P          22.7942   71.8763   -2.4339 P.3     1  UNL1        0.2189
      2 O          23.3855   72.9732   -1.6364 O.2     1  UNL1       -0.5170
      3 O          23.9708   70.9667   -3.0510 O.3     1  UNL1       -0.4371
      4 O          21.9140   72.4977   -3.6305 O.3     1  UNL1       -0.3112
      5 C          22.7680   72.5806   -4.7726 C.3     1  UNL1        0.1811
      6 C          19.8636   71.5819   -6.6419 C.3     1  UNL1        0.2383
      7 C          19.5872   73.0559   -6.2534 C.3     1  UNL1        0.1895
      8 O          18.7855   73.7034   -7.2420 O.3     1  UNL1       -0.3779
      9 C          21.0163   73.6572   -6.2192 C.3     1  UNL1        0.1713
     10 C          21.9341   72.4315   -6.0460 C.3     1  UNL1        0.1764
     11 O          21.0888   71.2729   -5.9441 O.3     1  UNL1       -0.3308
     12 O          21.3031   74.3359   -7.4439 O.3     1  UNL1       -0.3794
     13 H          18.6501   74.6127   -6.9413 H       1  UNL1        0.2106
     14 H          20.6596   75.0526   -7.5232 H       1  UNL1        0.2105
     15 N          18.7776   70.7126   -6.1877 N.ar    1  UNL1       -0.2551
     16 C          17.7944   70.3740   -7.0399 C.ar    1  UNL1        0.3323
     17 N          16.7851   69.5728   -6.6505 N.ar    1  UNL1       -0.2743
     18 C          16.7398   69.1017   -5.3880 C.ar    1  UNL1        0.2626
     19 C          17.7651   69.4552   -4.4788 C.ar    1  UNL1        0.0795
     20 C          18.7686   70.2560   -4.8973 C.ar    1  UNL1        0.0869
     21 O          17.8214   70.7908   -8.1818 O.2     1  UNL1       -0.2464
     22 O          15.8251   68.3812   -5.0336 O.2     1  UNL1       -0.2670
     23 H          16.0868   69.3349   -7.2798 H       1  UNL1        0.1734
     24 O          21.8549   70.9728   -1.4903 O.3     1  UNL1       -0.2703
     25 P          22.4414   71.0948    0.0031 P.3     1  UNL1        0.2208
     26 O          23.9148   70.9663   -0.0337 O.2     1  UNL1       -0.5170
     27 O          21.8242   69.9242    0.9201 O.3     1  UNL1       -0.4371
     28 O          22.0429   72.5260    0.6222 O.3     1  UNL1       -0.2865
     29 C          20.7385   72.3844    1.1876 C.3     1  UNL1        0.2611
     30 C          19.8540   73.5384    0.7122 C.3     1  UNL1        0.1582
     31 C          20.4886   74.8660    1.1414 C.3     1  UNL1        0.1625
     32 C          20.7457   74.8209    2.6513 C.3     1  UNL1        0.1686
     33 C          21.5657   73.5715    2.9801 C.3     1  UNL1        0.1760
     34 O          19.6001   75.9424    0.8356 O.3     1  UNL1       -0.3801
     35 O          21.4693   75.9873    3.0480 O.3     1  UNL1       -0.3794
     36 O          20.8340   72.4035    2.6102 O.3     1  UNL1       -0.3263
     37 H          20.0381   76.7559    1.1211 H       1  UNL1        0.2105
     38 H          21.6101   75.9179    4.0029 H       1  UNL1        0.2105
     39 C          18.5336   73.3345   -1.3248 C.2     1  UNL1        0.2231
     40 C          18.4161   73.2931   -2.8270 C.3     1  UNL1        0.0946
     41 N          19.7393   73.4986   -0.7471 N.am    1  UNL1       -0.2994
     42 O          17.5426   73.2194   -0.6357 O.2     1  UNL1       -0.2751
     43 H          20.5325   73.5905   -1.2984 H       1  UNL1        0.1496
     44 C          21.8557   73.5340    4.4820 C.3     1  UNL1        0.1693
     45 O          23.0871   74.2090    4.7467 O.3     1  UNL1       -0.3794
     46 H          23.2323   74.1622    5.7014 H       1  UNL1        0.2105
@<TRIPOS>BOND
     1    29    30    1
     2    29    28    1
     3    29    36    1
     4    30    31    1
     5    30    41    1
     6    31    32    1
     7    31    34    1
     8    32    33    1
     9    32    35    1
    10    33    44    1
    11    33    36    1
    12    44    45    1
    13    39    40    1
    14    39    41   am
    15    39    42    2
    16    41    43    1
    17    28    25    1
    18    34    37    1
    19    35    38    1
    20    45    46    1
    21    15    16   ar
    22    15    20   ar
    23    15     6    1
    24    16    17   ar
    25    16    21    2
    26    17    18   ar
    27    17    23    1
    28    18    19   ar
    29    18    22    2
    30    19    20   ar
    31     6     7    1
    32     6    11    1
    33     7     8    1
    34     7     9    1
    35     8    13    1
    36     9    10    1
    37     9    12    1
    38    10    11    1
    39    10     5    1
    40    12    14    1
    41     5     4    1
    42     4     1    1
    43     1     2    2
    44     1     3    1
    45     1    24    1
    46    24    25    1
    47    25    26    2
    48    25    27    1
@<TRIPOS>MOLECULE
UD1
 46 48 0 0 0
SMALL
GASTEIGER

@<TRIPOS>ATOM
      1 P          20.8942   71.3898   -2.0911 P.3     1  UNL1        0.2189
      2 O          21.4691   70.4912   -3.1162 O.2     1  UNL1       -0.5170
      3 O          20.9383   70.6631   -0.6549 O.3     1  UNL1       -0.4371
      4 O          19.3674   71.7307   -2.4723 O.3     1  UNL1       -0.3112
      5 C          18.6493   70.4961   -2.4485 C.3     1  UNL1        0.1811
      6 C          17.0144   70.4472   -5.6503 C.3     1  UNL1        0.2383
      7 C          16.9052   68.9898   -5.1364 C.3     1  UNL1        0.1895
      8 O          15.7173   68.3640   -5.6227 O.3     1  UNL1       -0.3779
      9 C          16.8358   69.1905   -3.6002 C.3     1  UNL1        0.1713
     10 C          17.4385   70.5912   -3.3780 C.3     1  UNL1        0.1764
     11 O          17.8464   71.0920   -4.6626 O.3     1  UNL1       -0.3308
     12 O          15.4799   69.1452   -3.1504 O.3     1  UNL1       -0.3794
     13 H          15.7097   67.4639   -5.2688 H       1  UNL1        0.2106
     14 H          15.1417   68.2670   -3.3708 H       1  UNL1        0.2105
     15 N          17.6513   70.4873   -6.9672 N.ar    1  UNL1       -0.2551
     16 C          16.8912   70.4675   -8.0759 C.ar    1  UNL1        0.3323
     17 N          17.4497   70.5073   -9.3001 N.ar    1  UNL1       -0.2743
     18 C          18.7904   70.5587   -9.4339 C.ar    1  UNL1        0.2626
     19 C          19.6028   70.5740   -8.2752 C.ar    1  UNL1        0.0795
     20 C          19.0161   70.5386   -7.0595 C.ar    1  UNL1        0.0869
     21 O          15.6806   70.4214   -7.9715 O.2     1  UNL1       -0.2464
     22 O          19.2967   70.5899  -10.5403 O.2     1  UNL1       -0.2670
     23 H          16.8860   70.4971  -10.0889 H       1  UNL1        0.1734
     24 O          21.7490   72.7516   -2.0309 O.3     1  UNL1       -0.2703
     25 P          23.1434   72.3939   -1.3120 P.3     1  UNL1        0.2208
     26 O          24.0876   73.5206   -1.4790 O.2     1  UNL1       -0.5170
     27 O          23.7676   71.0683   -1.9794 O.3     1  UNL1       -0.4371
     28 O          22.8893   72.1348    0.2560 O.3     1  UNL1       -0.2865
     29 C          23.1834   73.3589    0.9314 C.3     1  UNL1        0.2611
     30 C          23.5902   73.0545    2.3743 C.3     1  UNL1        0.1582
     31 C          22.4444   72.3132    3.0723 C.3     1  UNL1        0.1625
     32 C          21.1612   73.1361    2.9164 C.3     1  UNL1        0.1686
     33 C          20.9361   73.4318    1.4321 C.3     1  UNL1        0.1760
     34 O          22.7506   72.1555    4.4590 O.3     1  UNL1       -0.3801
     35 O          20.0530   72.3955    3.4311 O.3     1  UNL1       -0.3794
     36 O          22.0283   74.1951    0.9214 O.3     1  UNL1       -0.3263
     37 H          22.0054   71.6855    4.8579 H       1  UNL1        0.2105
     38 H          19.2677   72.9486    3.3126 H       1  UNL1        0.2105
     39 C          25.9543   72.7072    2.8481 C.2     1  UNL1        0.2231
     40 C          27.1904   71.8444    2.8516 C.3     1  UNL1        0.0946
     41 N          24.7911   72.2166    2.3784 N.am    1  UNL1       -0.2994
     42 O          26.0069   73.8436    3.2676 O.2     1  UNL1       -0.2751
     43 H          24.7488   71.3073    2.0424 H       1  UNL1        0.1496
     44 C          19.6392   74.2258    1.2625 C.3     1  UNL1        0.1693
     45 O          19.9225   75.4696    0.6184 O.3     1  UNL1       -0.3794
     46 H          19.0811   75.9377    0.5313 H       1  UNL1        0.2105
@<TRIPOS>BOND
     1    29    30    1
     2    29    28    1
     3    29    36    1
     4    30    31    1
     5    30    41    1
     6    31    32    1
     7    31    34    1
     8    32    33    1
     9    32    35    1
    10    33    44    1
    11    33    36    1
    12    44    45    1
    13    39    40    1
    14    39    41   am
    15    39    42    2
    16    41    43    1
    17    28    25    1
    18    34    37    1
    19    35    38    1
    20    45    46    1
    21    15    16   ar
    22    15    20   ar
    23    15     6    1
    24    16    17   ar
    25    16    21    2
    26    17    18   ar
    27    17    23    1
    28    18    19   ar
    29    18    22    2
    30    19    20   ar
    31     6     7    1
    32     6    11    1
    33     7     8    1
    34     7     9    1
    35     8    13    1
    36     9    10    1
    37     9    12    1
    38    10    11    1
    39    10     5    1
    40    12    14    1
    41     5     4    1
    42     4     1    1
    43     1     2    2
    44     1     3    1
    45     1    24    1
    46    24    25    1
    47    25    26    2
    48    25    27    1
@<TRIPOS>MOLECULE
UD1
 46 48 0 0 0
SMALL
GASTEIGER

@<TRIPOS>ATOM
      1 P          22.9758   71.7939   -2.4385 P.3     1  UNL1        0.2189
      2 O          23.6000   72.8324   -1.5895 O.2     1  UNL1       -0.5170
      3 O          24.1200   71.0111   -3.2574 O.3     1  UNL1       -0.4371
      4 O          21.9566   72.4888   -3.4734 O.3     1  UNL1       -0.3112
      5 C          22.5912   72.4727   -4.7530 C.3     1  UNL1        0.1811
      6 C          19.4888   71.0136   -5.8363 C.3     1  UNL1        0.2383
      7 C          19.3324   72.5255   -6.1365 C.3     1  UNL1        0.1895
      8 O          18.4913   72.7371   -7.2709 O.3     1  UNL1       -0.3779
      9 C          20.7924   72.9492   -6.4433 C.3     1  UNL1        0.1713
     10 C          21.6477   71.8504   -5.7835 C.3     1  UNL1        0.1764
     11 O          20.7472   70.9374   -5.1333 O.3     1  UNL1       -0.3308
     12 O          21.0164   72.9868   -7.8544 O.3     1  UNL1       -0.3794
     13 H          18.4349   73.6935   -7.4033 H       1  UNL1        0.2106
     14 H          20.4117   73.6487   -8.2156 H       1  UNL1        0.2105
     15 N          18.3948   70.5363   -4.9897 N.ar    1  UNL1       -0.2551
     16 C          17.2857   70.0303   -5.5564 C.ar    1  UNL1        0.3323
     17 N          16.2655   69.5803   -4.8022 N.ar    1  UNL1       -0.2743
     18 C          16.3373   69.6391   -3.4571 C.ar    1  UNL1        0.2626
     19 C          17.4966   70.1749   -2.8475 C.ar    1  UNL1        0.0795
     20 C          18.5073   70.6143   -3.6277 C.ar    1  UNL1        0.0869
     21 O          17.2060   69.9705   -6.7683 O.2     1  UNL1       -0.2464
     22 O          15.4134   69.2369   -2.7744 O.2     1  UNL1       -0.2670
     23 H          15.4749   69.2141   -5.2278 H       1  UNL1        0.1734
     24 O          22.1719   70.7539   -1.5105 O.3     1  UNL1       -0.2703
     25 P          21.9636   71.4686   -0.0839 P.3     1  UNL1        0.2208
     26 O          23.2036   72.1801    0.2969 O.2     1  UNL1       -0.5170
     27 O          21.6202   70.3570    1.0290 O.3     1  UNL1       -0.4371
     28 O          20.7497   72.5209   -0.1816 O.3     1  UNL1       -0.2865
     29 C          21.2754   73.7959    0.1914 C.3     1  UNL1        0.2611
     30 C          20.7298   74.1844    1.5667 C.3     1  UNL1        0.1582
     31 C          19.1988   74.2274    1.5047 C.3     1  UNL1        0.1625
     32 C          18.7806   75.1482    0.3534 C.3     1  UNL1        0.1686
     33 C          19.4710   74.6851   -0.9311 C.3     1  UNL1        0.1760
     34 O          18.6836   74.7328    2.7378 O.3     1  UNL1       -0.3801
     35 O          17.3631   75.0882    0.1841 O.3     1  UNL1       -0.3794
     36 O          20.8870   74.7699   -0.7750 O.3     1  UNL1       -0.3263
     37 H          17.7201   74.7425    2.6550 H       1  UNL1        0.2105
     38 H          17.1436   75.6803   -0.5491 H       1  UNL1        0.2105
     39 C          22.1824   73.4640    3.3848 C.2     1  UNL1        0.2231
     40 C          22.6179   72.4443    4.4059 C.3     1  UNL1        0.0946
     41 N          21.1529   73.1943    2.5592 N.am    1  UNL1       -0.2994
     42 O          22.7593   74.5276    3.3058 O.2     1  UNL1       -0.2751
     43 H          20.6911   72.3431    2.6220 H       1  UNL1        0.1496
     44 C          19.0346   75.5787   -2.0940 C.3     1  UNL1        0.1693
     45 O          17.8422   75.0513   -2.6790 O.3     1  UNL1       -0.3794
     46 H          17.6021   75.6420   -3.4057 H       1  UNL1        0.2105
@<TRIPOS>BOND
     1    29    30    1
     2    29    28    1
     3    29    36    1
     4    30    31    1
     5    30    41    1
     6    31    32    1
     7    31    34    1
     8    32    33    1
     9    32    35    1
    10    33    44    1
    11    33    36    1
    12    44    45    1
    13    39    40    1
    14    39    41   am
    15    39    42    2
    16    41    43    1
    17    28    25    1
    18    34    37    1
    19    35    38    1
    20    45    46    1
    21    15    16   ar
    22    15    20   ar
    23    15     6    1
    24    16    17   ar
    25    16    21    2
    26    17    18   ar
    27    17    23    1
    28    18    19   ar
    29    18    22    2
    30    19    20   ar
    31     6     7    1
    32     6    11    1
    33     7     8    1
    34     7     9    1
    35     8    13    1
    36     9    10    1
    37     9    12    1
    38    10    11    1
    39    10     5    1
    40    12    14    1
    41     5     4    1
    42     4     1    1
    43     1     2    2
    44     1     3    1
    45     1    24    1
    46    24    25    1
    47    25    26    2
    48    25    27    1
@<TRIPOS>MOLECULE
UD1
 46 48 0 0 0
SMALL
GASTEIGER

@<TRIPOS>ATOM
      1 P          20.5594   70.9949   -2.2127 P.3     1  UNL1        0.2189
      2 O          20.4560   70.6292   -0.7829 O.2     1  UNL1       -0.5170
      3 O          20.5941   72.5984   -2.3554 O.3     1  UNL1       -0.4371
      4 O          19.2856   70.4139   -3.0081 O.3     1  UNL1       -0.3112
      5 C          18.1433   71.1344   -2.5431 C.3     1  UNL1        0.1811
      6 C          16.7470   70.5539   -5.8051 C.3     1  UNL1        0.2383
      7 C          16.7983   69.1511   -5.1496 C.3     1  UNL1        0.1895
      8 O          15.7393   68.3229   -5.6309 O.3     1  UNL1       -0.3779
      9 C          16.6004   69.4858   -3.6482 C.3     1  UNL1        0.1713
     10 C          16.9954   70.9713   -3.5406 C.3     1  UNL1        0.1764
     11 O          17.4180   71.3992   -4.8466 O.3     1  UNL1       -0.3308
     12 O          15.2355   69.2956   -3.2690 O.3     1  UNL1       -0.3794
     13 H          15.8278   67.4683   -5.1866 H       1  UNL1        0.2106
     14 H          15.0326   68.3620   -3.4149 H       1  UNL1        0.2105
     15 N          17.4594   70.5563   -7.0833 N.ar    1  UNL1       -0.2551
     16 C          16.7640   70.5428   -8.2337 C.ar    1  UNL1        0.3323
     17 N          17.3930   70.5487   -9.4240 N.ar    1  UNL1       -0.2743
     18 C          18.7400   70.5588   -9.4806 C.ar    1  UNL1        0.2626
     19 C          19.4846   70.5670   -8.2771 C.ar    1  UNL1        0.0795
     20 C          18.8282   70.5663   -7.0970 C.ar    1  UNL1        0.0869
     21 O          15.5486   70.5337   -8.1991 O.2     1  UNL1       -0.2464
     22 O          19.3098   70.5592  -10.5562 O.2     1  UNL1       -0.2670
     23 H          16.8754   70.5436  -10.2439 H       1  UNL1        0.1734
     24 O          21.9078   70.3709   -2.8302 O.3     1  UNL1       -0.2703
     25 P          23.0914   71.4129   -2.5098 P.3     1  UNL1        0.2208
     26 O          24.3695   70.8839   -3.0346 O.2     1  UNL1       -0.5170
     27 O          23.2100   71.6184   -0.9173 O.3     1  UNL1       -0.4371
     28 O          22.7681   72.8260   -3.2092 O.3     1  UNL1       -0.2865
     29 C          23.8635   73.1184   -4.0785 C.3     1  UNL1        0.2611
     30 C          24.2547   74.5888   -3.9208 C.3     1  UNL1        0.1582
     31 C          23.0457   75.4683   -4.2591 C.3     1  UNL1        0.1625
     32 C          22.5277   75.0766   -5.6470 C.3     1  UNL1        0.1686
     33 C          22.2638   73.5697   -5.6735 C.3     1  UNL1        0.1760
     34 O          23.4384   76.8420   -4.2610 O.3     1  UNL1       -0.3801
     35 O          21.3148   75.7805   -5.9207 O.3     1  UNL1       -0.3794
     36 O          23.4790   72.8630   -5.4277 O.3     1  UNL1       -0.3263
     37 H          22.6495   77.3578   -4.4774 H       1  UNL1        0.2105
     38 H          21.0237   75.5045   -6.8013 H       1  UNL1        0.2105
     39 C          23.7711   75.2472   -1.6258 C.2     1  UNL1        0.2231
     40 C          24.2017   75.5054   -0.2045 C.3     1  UNL1        0.0946
     41 N          24.6724   74.8392   -2.5398 N.am    1  UNL1       -0.2994
     42 O          22.6129   75.4075   -1.9470 O.2     1  UNL1       -0.2751
     43 H          25.5994   74.7111   -2.2831 H       1  UNL1        0.1496
     44 C          21.7152   73.1733   -7.0458 C.3     1  UNL1        0.1693
     45 O          22.7783   73.1674   -8.0007 O.3     1  UNL1       -0.3794
     46 H          22.3908   72.9136   -8.8492 H       1  UNL1        0.2105
@<TRIPOS>BOND
     1    29    30    1
     2    29    28    1
     3    29    36    1
     4    30    31    1
     5    30    41    1
     6    31    32    1
     7    31    34    1
     8    32    33    1
     9    32    35    1
    10    33    44    1
    11    33    36    1
    12    44    45    1
    13    39    40    1
    14    39    41   am
    15    39    42    2
    16    41    43    1
    17    28    25    1
    18    34    37    1
    19    35    38    1
    20    45    46    1
    21    15    16   ar
    22    15    20   ar
    23    15     6    1
    24    16    17   ar
    25    16    21    2
    26    17    18   ar
    27    17    23    1
    28    18    19   ar
    29    18    22    2
    30    19    20   ar
    31     6     7    1
    32     6    11    1
    33     7     8    1
    34     7     9    1
    35     8    13    1
    36     9    10    1
    37     9    12    1
    38    10    11    1
    39    10     5    1
    40    12    14    1
    41     5     4    1
    42     4     1    1
    43     1     2    2
    44     1     3    1
    45     1    24    1
    46    24    25    1
    47    25    26    2
    48    25    27    1
@<TRIPOS>MOLECULE
UD1
 46 48 0 0 0
SMALL
GASTEIGER

@<TRIPOS>ATOM
      1 P          20.9264   70.8395   -3.4130 P.3     1  UNL1        0.2189
      2 O          21.7334   71.4767   -4.4767 O.2     1  UNL1       -0.5170
      3 O          20.4715   69.3709   -3.8913 O.3     1  UNL1       -0.4371
      4 O          19.6210   71.7359   -3.1208 O.3     1  UNL1       -0.3112
      5 C          18.6337   70.8623   -2.5707 C.3     1  UNL1        0.1811
      6 C          16.9950   70.5171   -5.7523 C.3     1  UNL1        0.2383
      7 C          16.9873   69.0878   -5.1546 C.3     1  UNL1        0.1895
      8 O          15.8433   68.3556   -5.5953 O.3     1  UNL1       -0.3779
      9 C          16.9096   69.3720   -3.6320 C.3     1  UNL1        0.1713
     10 C          17.4161   70.8209   -3.4953 C.3     1  UNL1        0.1764
     11 O          17.7844   71.2730   -4.8095 O.3     1  UNL1       -0.3308
     12 O          15.5616   69.2607   -3.1704 O.3     1  UNL1       -0.3794
     13 H          15.8985   67.4790   -5.1901 H       1  UNL1        0.2106
     14 H          15.2835   68.3503   -3.3374 H       1  UNL1        0.2105
     15 N          17.6232   70.5240   -7.0740 N.ar    1  UNL1       -0.2551
     16 C          16.8561   70.4668   -8.1766 C.ar    1  UNL1        0.3323
     17 N          17.4065   70.4755   -9.4051 N.ar    1  UNL1       -0.2743
     18 C          18.7459   70.5329   -9.5492 C.ar    1  UNL1        0.2626
     19 C          19.5655   70.5875   -8.3968 C.ar    1  UNL1        0.0795
     20 C          18.9869   70.5827   -7.1767 C.ar    1  UNL1        0.0869
     21 O          15.6466   70.4147   -8.0630 O.2     1  UNL1       -0.2464
     22 O          19.2448   70.5361  -10.6594 O.2     1  UNL1       -0.2670
     23 H          16.8378   70.4385  -10.1896 H       1  UNL1        0.1734
     24 O          21.8060   70.7194   -2.0711 O.3     1  UNL1       -0.2703
     25 P          23.0687   71.7000   -2.2536 P.3     1  UNL1        0.2208
     26 O          22.6560   72.8988   -3.0161 O.2     1  UNL1       -0.5170
     27 O          24.2349   70.9310   -3.0541 O.3     1  UNL1       -0.4371
     28 O          23.6167   72.1462   -0.8076 O.3     1  UNL1       -0.2865
     29 C          22.8025   73.2374   -0.3744 C.3     1  UNL1        0.2611
     30 C          23.6950   74.4382   -0.0559 C.3     1  UNL1        0.1582
     31 C          24.6959   74.0432    1.0358 C.3     1  UNL1        0.1625
     32 C          23.9209   73.4724    2.2281 C.3     1  UNL1        0.1686
     33 C          23.0135   72.3422    1.7376 C.3     1  UNL1        0.1760
     34 O          25.4346   75.1948    1.4476 O.3     1  UNL1       -0.3801
     35 O          24.8402   72.9631    3.1961 O.3     1  UNL1       -0.3794
     36 O          22.0759   72.8531    0.7908 O.3     1  UNL1       -0.3263
     37 H          26.0506   74.9013    2.1329 H       1  UNL1        0.2105
     38 H          24.3114   72.6136    3.9274 H       1  UNL1        0.2105
     39 C          24.0560   75.9590   -1.9244 C.2     1  UNL1        0.2231
     40 C          24.8017   76.3759   -3.1663 C.3     1  UNL1        0.0946
     41 N          24.4195   74.8438   -1.2621 N.am    1  UNL1       -0.2994
     42 O          23.1280   76.6273   -1.5214 O.2     1  UNL1       -0.2751
     43 H          25.1619   74.3087   -1.5845 H       1  UNL1        0.1496
     44 C          22.2588   71.7434    2.9263 C.3     1  UNL1        0.1693
     45 O          20.8807   72.1142    2.8518 O.3     1  UNL1       -0.3794
     46 H          20.4426   71.7179    3.6171 H       1  UNL1        0.2105
@<TRIPOS>BOND
     1    29    30    1
     2    29    28    1
     3    29    36    1
     4    30    31    1
     5    30    41    1
     6    31    32    1
     7    31    34    1
     8    32    33    1
     9    32    35    1
    10    33    44    1
    11    33    36    1
    12    44    45    1
    13    39    40    1
    14    39    41   am
    15    39    42    2
    16    41    43    1
    17    28    25    1
    18    34    37    1
    19    35    38    1
    20    45    46    1
    21    15    16   ar
    22    15    20   ar
    23    15     6    1
    24    16    17   ar
    25    16    21    2
    26    17    18   ar
    27    17    23    1
    28    18    19   ar
    29    18    22    2
    30    19    20   ar
    31     6     7    1
    32     6    11    1
    33     7     8    1
    34     7     9    1
    35     8    13    1
    36     9    10    1
    37     9    12    1
    38    10    11    1
    39    10     5    1
    40    12    14    1
    41     5     4    1
    42     4     1    1
    43     1     2    2
    44     1     3    1
    45     1    24    1
    46    24    25    1
    47    25    26    2
    48    25    27    1
@<TRIPOS>MOLECULE
UD1
 46 48 0 0 0
SMALL
GASTEIGER

@<TRIPOS>ATOM
      1 P          21.7765   73.2803   -6.6213 P.3     1  UNL1        0.2189
      2 O          22.1380   74.4762   -7.4137 O.2     1  UNL1       -0.5170
      3 O          22.9248   72.1630   -6.7816 O.3     1  UNL1       -0.4371
      4 O          20.3760   72.6889   -7.1519 O.3     1  UNL1       -0.3112
      5 C          20.6903   71.6766   -8.1093 C.3     1  UNL1        0.1811
      6 C          17.7020   70.1086   -6.8690 C.3     1  UNL1        0.2383
      7 C          17.2008   71.0983   -7.9504 C.3     1  UNL1        0.1895
      8 O          16.0144   70.6114   -8.5785 O.3     1  UNL1       -0.3779
      9 C          18.3874   71.1180   -8.9488 C.3     1  UNL1        0.1713
     10 C          19.5849   70.6196   -8.1169 C.3     1  UNL1        0.1764
     11 O          19.1137   70.3953   -6.7772 O.3     1  UNL1       -0.3308
     12 O          18.1322   70.2392  -10.0466 O.3     1  UNL1       -0.3794
     13 H          15.7555   71.2705   -9.2373 H       1  UNL1        0.2106
     14 H          17.3394   70.5693  -10.4901 H       1  UNL1        0.2105
     15 N          17.0400   70.3595   -5.5883 N.ar    1  UNL1       -0.2551
     16 C          16.4183   69.3522   -4.9509 C.ar    1  UNL1        0.3323
     17 N          15.8046   69.5533   -3.7697 N.ar    1  UNL1       -0.2743
     18 C          15.7961   70.7792   -3.2084 C.ar    1  UNL1        0.2626
     19 C          16.4415   71.8499   -3.8716 C.ar    1  UNL1        0.0795
     20 C          17.0540   71.6192   -5.0527 C.ar    1  UNL1        0.0869
     21 O          16.4174   68.2409   -5.4444 O.2     1  UNL1       -0.2464
     22 O          15.2374   70.9632   -2.1429 O.2     1  UNL1       -0.2670
     23 H          15.3652   68.8142   -3.3216 H       1  UNL1        0.1734
     24 O          21.6344   73.6866   -5.0709 O.3     1  UNL1       -0.2703
     25 P          23.1163   74.0204   -4.5401 P.3     1  UNL1        0.2208
     26 O          23.7807   74.9472   -5.4827 O.2     1  UNL1       -0.5170
     27 O          23.9694   72.6589   -4.4364 O.3     1  UNL1       -0.4371
     28 O          23.0253   74.7069   -3.0872 O.3     1  UNL1       -0.2865
     29 C          24.1538   74.2482   -2.3406 C.3     1  UNL1        0.2611
     30 C          23.7429   74.0382   -0.8822 C.3     1  UNL1        0.1582
     31 C          23.2196   75.3619   -0.3133 C.3     1  UNL1        0.1625
     32 C          24.2774   76.4464   -0.5430 C.3     1  UNL1        0.1686
     33 C          24.6458   76.4768   -2.0279 C.3     1  UNL1        0.1760
     34 O          22.9733   75.2174    1.0867 O.3     1  UNL1       -0.3801
     35 O          23.7520   77.7167   -0.1535 O.3     1  UNL1       -0.3794
     36 O          25.1965   75.2181   -2.4138 O.3     1  UNL1       -0.3263
     37 H          22.6461   76.0710    1.4024 H       1  UNL1        0.2105
     38 H          24.4484   78.3690   -0.3150 H       1  UNL1        0.2105
     39 C          22.8886   71.8930   -0.1059 C.2     1  UNL1        0.2231
     40 C          21.8044   70.8482   -0.0335 C.3     1  UNL1        0.0946
     41 N          22.6897   73.0232   -0.8111 N.am    1  UNL1       -0.2994
     42 O          23.9406   71.7159    0.4703 O.2     1  UNL1       -0.2751
     43 H          21.8480   73.1651   -1.2725 H       1  UNL1        0.1496
     44 C          25.6783   77.5789   -2.2735 C.3     1  UNL1        0.1693
     45 O          26.5323   77.6947   -1.1337 O.3     1  UNL1       -0.3794
     46 H          27.1660   78.3982   -1.3291 H       1  UNL1        0.2105
@<TRIPOS>BOND
     1    29    30    1
     2    29    28    1
     3    29    36    1
     4    30    31    1
     5    30    41    1
     6    31    32    1
     7    31    34    1
     8    32    33    1
     9    32    35    1
    10    33    44    1
    11    33    36    1
    12    44    45    1
    13    39    40    1
    14    39    41   am
    15    39    42    2
    16    41    43    1
    17    28    25    1
    18    34    37    1
    19    35    38    1
    20    45    46    1
    21    15    16   ar
    22    15    20   ar
    23    15     6    1
    24    16    17   ar
    25    16    21    2
    26    17    18   ar
    27    17    23    1
    28    18    19   ar
    29    18    22    2
    30    19    20   ar
    31     6     7    1
    32     6    11    1
    33     7     8    1
    34     7     9    1
    35     8    13    1
    36     9    10    1
    37     9    12    1
    38    10    11    1
    39    10     5    1
    40    12    14    1
    41     5     4    1
    42     4     1    1
    43     1     2    2
    44     1     3    1
    45     1    24    1
    46    24    25    1
    47    25    26    2
    48    25    27    1
@<TRIPOS>MOLECULE
UD1
 46 48 0 0 0
SMALL
GASTEIGER

@<TRIPOS>ATOM
      1 P          20.3955   71.3172   -0.7289 P.3     1  UNL1        0.2189
      2 O          20.0291   72.6360   -0.1676 O.2     1  UNL1       -0.5170
      3 O          21.4076   71.5220   -1.9643 O.3     1  UNL1       -0.4371
      4 O          19.0675   70.5658   -1.2433 O.3     1  UNL1       -0.3112
      5 C          19.2893   70.2240   -2.6124 C.3     1  UNL1        0.1811
      6 C          17.3535   70.4290   -5.6353 C.3     1  UNL1        0.2383
      7 C          17.1263   68.9835   -5.1261 C.3     1  UNL1        0.1895
      8 O          15.8317   68.5085   -5.4969 O.3     1  UNL1       -0.3779
      9 C          17.2319   69.1594   -3.5889 C.3     1  UNL1        0.1713
     10 C          18.0124   70.4767   -3.4155 C.3     1  UNL1        0.1764
     11 O          18.3478   70.9535   -4.7298 O.3     1  UNL1       -0.3308
     12 O          15.9307   69.2610   -3.0064 O.3     1  UNL1       -0.3794
     13 H          15.7542   67.6082   -5.1521 H       1  UNL1        0.2106
     14 H          15.4726   68.4322   -3.1998 H       1  UNL1        0.2105
     15 N          17.8584   70.4225   -7.0088 N.ar    1  UNL1       -0.2551
     16 C          16.9925   70.3931   -8.0368 C.ar    1  UNL1        0.3323
     17 N          17.4286   70.3904   -9.3104 N.ar    1  UNL1       -0.2743
     18 C          18.7503   70.4080   -9.5761 C.ar    1  UNL1        0.2626
     19 C          19.6729   70.4331   -8.5033 C.ar    1  UNL1        0.0795
     20 C          19.2082   70.4406   -7.2355 C.ar    1  UNL1        0.0869
     21 O          15.7974   70.3770   -7.8132 O.2     1  UNL1       -0.2464
     22 O          19.1457   70.4008  -10.7272 O.2     1  UNL1       -0.2670
     23 H          16.7898   70.3738  -10.0397 H       1  UNL1        0.1734
     24 O          21.1079   70.4291    0.4081 O.3     1  UNL1       -0.2703
     25 P          22.2746   71.3368    1.0439 P.3     1  UNL1        0.2208
     26 O          22.6824   72.3708    0.0675 O.2     1  UNL1       -0.5170
     27 O          23.5411   70.4099    1.4032 O.3     1  UNL1       -0.4371
     28 O          21.7341   72.0470    2.3832 O.3     1  UNL1       -0.2865
     29 C          22.2198   73.3905    2.3649 C.3     1  UNL1        0.2611
     30 C          23.1823   73.5955    3.5361 C.3     1  UNL1        0.1582
     31 C          22.4446   73.3047    4.8479 C.3     1  UNL1        0.1625
     32 C          21.1714   74.1562    4.8935 C.3     1  UNL1        0.1686
     33 C          20.3591   73.9064    3.6211 C.3     1  UNL1        0.1760
     34 O          23.2861   73.6360    5.9541 O.3     1  UNL1       -0.3801
     35 O          20.3948   73.7939    6.0368 O.3     1  UNL1       -0.3794
     36 O          21.1217   74.2930    2.4785 O.3     1  UNL1       -0.3263
     37 H          22.7838   73.4377    6.7564 H       1  UNL1        0.2105
     38 H          19.6043   74.3520    6.0263 H       1  UNL1        0.2105
     39 C          25.4922   73.1354    2.9142 C.2     1  UNL1        0.2231
     40 C          26.6630   72.1963    2.7744 C.3     1  UNL1        0.0946
     41 N          24.3201   72.6838    3.4006 N.am    1  UNL1       -0.2994
     42 O          25.6050   74.2977    2.5881 O.2     1  UNL1       -0.2751
     43 H          24.2295   71.7536    3.6614 H       1  UNL1        0.1496
     44 C          19.0692   74.7279    3.6716 C.3     1  UNL1        0.1693
     45 O          19.0427   75.5005    4.8734 O.3     1  UNL1       -0.3794
     46 H          18.2159   76.0015    4.8659 H       1  UNL1        0.2105
@<TRIPOS>BOND
     1    29    30    1
     2    29    28    1
     3    29    36    1
     4    30    31    1
     5    30    41    1
     6    31    32    1
     7    31    34    1
     8    32    33    1
     9    32    35    1
    10    33    44    1
    11    33    36    1
    12    44    45    1
    13    39    40    1
    14    39    41   am
    15    39    42    2
    16    41    43    1
    17    28    25    1
    18    34    37    1
    19    35    38    1
    20    45    46    1
    21    15    16   ar
    22    15    20   ar
    23    15     6    1
    24    16    17   ar
    25    16    21    2
    26    17    18   ar
    27    17    23    1
    28    18    19   ar
    29    18    22    2
    30    19    20   ar
    31     6     7    1
    32     6    11    1
    33     7     8    1
    34     7     9    1
    35     8    13    1
    36     9    10    1
    37     9    12    1
    38    10    11    1
    39    10     5    1
    40    12    14    1
    41     5     4    1
    42     4     1    1
    43     1     2    2
    44     1     3    1
    45     1    24    1
    46    24    25    1
    47    25    26    2
    48    25    27    1
@<TRIPOS>MOLECULE
UD1
 46 48 0 0 0
SMALL
GASTEIGER

@<TRIPOS>ATOM
      1 P          21.7106   71.4774   -0.6304 P.3     1  UNL1        0.2189
      2 O          20.7487   72.5682   -0.9018 O.2     1  UNL1       -0.5170
      3 O          21.1208   70.5151    0.5180 O.3     1  UNL1       -0.4371
      4 O          23.1085   72.1059   -0.1368 O.3     1  UNL1       -0.3112
      5 C          23.3814   71.5488    1.1499 C.3     1  UNL1        0.1811
      6 C          25.5992   73.5155    3.1847 C.3     1  UNL1        0.2383
      7 C          25.5222   74.2829    1.8410 C.3     1  UNL1        0.1895
      8 O          25.6816   75.6873    2.0446 O.3     1  UNL1       -0.3779
      9 C          24.0854   73.9531    1.3596 C.3     1  UNL1        0.1713
     10 C          23.7164   72.6721    2.1324 C.3     1  UNL1        0.1764
     11 O          24.8585   72.3042    2.9246 O.3     1  UNL1       -0.3308
     12 O          23.1908   75.0183    1.6878 O.3     1  UNL1       -0.3794
     13 H          25.6244   76.1049    1.1741 H       1  UNL1        0.2106
     14 H          23.5086   75.8034    1.2222 H       1  UNL1        0.2105
     15 N          26.9880   73.2076    3.5281 N.ar    1  UNL1       -0.2551
     16 C          27.6883   74.0584    4.2982 C.ar    1  UNL1        0.3323
     17 N          28.9661   73.7988    4.6331 N.ar    1  UNL1       -0.2743
     18 C          29.5702   72.6778    4.1903 C.ar    1  UNL1        0.2626
     19 C          28.8465   71.7764    3.3738 C.ar    1  UNL1        0.0795
     20 C          27.5645   72.0587    3.0576 C.ar    1  UNL1        0.0869
     21 O          27.1572   75.0737    4.7054 O.2     1  UNL1       -0.2464
     22 O          30.7270   72.4444    4.4885 O.2     1  UNL1       -0.2670
     23 H          29.4547   74.4213    5.1935 H       1  UNL1        0.1734
     24 O          21.9500   70.6262   -1.9746 O.3     1  UNL1       -0.2703
     25 P          22.8650   71.5308   -2.9409 P.3     1  UNL1        0.2208
     26 O          24.1964   70.9029   -3.0891 O.2     1  UNL1       -0.5170
     27 O          23.0331   72.9991   -2.3021 O.3     1  UNL1       -0.4371
     28 O          22.1654   71.6524   -4.3853 O.3     1  UNL1       -0.2865
     29 C          21.5231   72.9278   -4.4286 C.3     1  UNL1        0.2611
     30 C          20.0346   72.7339   -4.7235 C.3     1  UNL1        0.1582
     31 C          19.8799   72.0043   -6.0627 C.3     1  UNL1        0.1625
     32 C          20.6619   72.7732   -7.1329 C.3     1  UNL1        0.1686
     33 C          22.1041   72.9615   -6.6574 C.3     1  UNL1        0.1760
     34 O          18.4980   71.9497   -6.4214 O.3     1  UNL1       -0.3801
     35 O          20.6530   72.0333   -8.3553 O.3     1  UNL1       -0.3794
     36 O          22.1183   73.7237   -5.4511 O.3     1  UNL1       -0.3263
     37 H          18.4471   71.4836   -7.2673 H       1  UNL1        0.2105
     38 H          21.1557   72.5516   -8.9997 H       1  UNL1        0.2105
     39 C          19.2617   70.6095   -3.8158 C.2     1  UNL1        0.2231
     40 C          18.6323   69.7900   -2.7183 C.3     1  UNL1        0.0946
     41 N          19.4237   71.9373   -3.6575 N.am    1  UNL1       -0.2994
     42 O          19.6219   70.0736   -4.8421 O.2     1  UNL1       -0.2751
     43 H          19.1353   72.3664   -2.8364 H       1  UNL1        0.1496
     44 C          22.9023   73.7002   -7.7337 C.3     1  UNL1        0.1693
     45 O          23.5740   74.8167   -7.1469 O.3     1  UNL1       -0.3794
     46 H          24.0635   75.2536   -7.8570 H       1  UNL1        0.2105
@<TRIPOS>BOND
     1    29    30    1
     2    29    28    1
     3    29    36    1
     4    30    31    1
     5    30    41    1
     6    31    32    1
     7    31    34    1
     8    32    33    1
     9    32    35    1
    10    33    44    1
    11    33    36    1
    12    44    45    1
    13    39    40    1
    14    39    41   am
    15    39    42    2
    16    41    43    1
    17    28    25    1
    18    34    37    1
    19    35    38    1
    20    45    46    1
    21    15    16   ar
    22    15    20   ar
    23    15     6    1
    24    16    17   ar
    25    16    21    2
    26    17    18   ar
    27    17    23    1
    28    18    19   ar
    29    18    22    2
    30    19    20   ar
    31     6     7    1
    32     6    11    1
    33     7     8    1
    34     7     9    1
    35     8    13    1
    36     9    10    1
    37     9    12    1
    38    10    11    1
    39    10     5    1
    40    12    14    1
    41     5     4    1
    42     4     1    1
    43     1     2    2
    44     1     3    1
    45     1    24    1
    46    24    25    1
    47    25    26    2
    48    25    27    1
@<TRIPOS>MOLECULE
UD1
 46 48 0 0 0
SMALL
GASTEIGER

@<TRIPOS>ATOM
      1 P          23.4642   72.3665   -3.5332 P.3     1  UNL1        0.2189
      2 O          24.5526   73.1519   -4.1554 O.2     1  UNL1       -0.5170
      3 O          24.0164   70.9082   -3.1320 O.3     1  UNL1       -0.4371
      4 O          22.2501   72.2104   -4.5793 O.3     1  UNL1       -0.3112
      5 C          22.7753   72.5171   -5.8717 C.3     1  UNL1        0.1811
      6 C          19.4297   71.9579   -7.0640 C.3     1  UNL1        0.2383
      7 C          19.3430   73.2875   -6.2735 C.3     1  UNL1        0.1895
      8 O          18.3403   74.1437   -6.8219 O.3     1  UNL1       -0.3779
      9 C          20.7580   73.8856   -6.4860 C.3     1  UNL1        0.1713
     10 C          21.6247   72.6701   -6.8677 C.3     1  UNL1        0.1764
     11 O          20.7795   71.5080   -6.8206 O.3     1  UNL1       -0.3308
     12 O          20.7410   74.8477   -7.5428 O.3     1  UNL1       -0.3794
     13 H          18.3369   74.9496   -6.2870 H       1  UNL1        0.2106
     14 H          20.1372   75.5514   -7.2701 H       1  UNL1        0.2105
     15 N          18.4618   70.9862   -6.5538 N.ar    1  UNL1       -0.2551
     16 C          18.6225   70.4687   -5.3234 C.ar    1  UNL1        0.3323
     17 N          17.7457   69.5761   -4.8269 N.ar    1  UNL1       -0.2743
     18 C          16.6902   69.1776   -5.5652 C.ar    1  UNL1        0.2626
     19 C          16.5122   69.7099   -6.8644 C.ar    1  UNL1        0.0795
     20 C          17.4039   70.6077   -7.3357 C.ar    1  UNL1        0.0869
     21 O          19.5695   70.8183   -4.6454 O.2     1  UNL1       -0.2464
     22 O          15.8994   68.3670   -5.1192 O.2     1  UNL1       -0.2670
     23 H          17.8745   69.2167   -3.9356 H       1  UNL1        0.1734
     24 O          22.9415   73.1250   -2.2140 O.3     1  UNL1       -0.2703
     25 P          21.6155   72.3534   -1.7287 P.3     1  UNL1        0.2208
     26 O          21.6885   70.9363   -2.1474 O.2     1  UNL1       -0.5170
     27 O          20.3200   73.0420   -2.3917 O.3     1  UNL1       -0.4371
     28 O          21.5027   72.4339   -0.1252 O.3     1  UNL1       -0.2865
     29 C          21.9337   73.7418    0.2555 C.3     1  UNL1        0.2611
     30 C          22.7357   73.6510    1.5549 C.3     1  UNL1        0.1582
     31 C          21.8541   73.0329    2.6459 C.3     1  UNL1        0.1625
     32 C          20.5525   73.8362    2.7379 C.3     1  UNL1        0.1686
     33 C          19.9135   73.9104    1.3495 C.3     1  UNL1        0.1760
     34 O          22.5392   73.0798    3.8989 O.3     1  UNL1       -0.3801
     35 O          19.6558   73.1913    3.6443 O.3     1  UNL1       -0.3794
     36 O          20.7952   74.5786    0.4481 O.3     1  UNL1       -0.3263
     37 H          21.9502   72.6816    4.5545 H       1  UNL1        0.2105
     38 H          18.8513   73.7283    3.6716 H       1  UNL1        0.2105
     39 C          23.8639   71.4928    1.6150 C.2     1  UNL1        0.2231
     40 C          25.0800   70.6288    1.3983 C.3     1  UNL1        0.0946
     41 N          23.9166   72.8112    1.3441 N.am    1  UNL1       -0.2994
     42 O          22.8378   71.0012    2.0341 O.2     1  UNL1       -0.2751
     43 H          24.7377   73.2049    1.0090 H       1  UNL1        0.1496
     44 C          18.5958   74.6832    1.4365 C.3     1  UNL1        0.1693
     45 O          18.6915   75.6749    2.4610 O.3     1  UNL1       -0.3794
     46 H          17.8429   76.1375    2.4828 H       1  UNL1        0.2105
@<TRIPOS>BOND
     1    29    30    1
     2    29    28    1
     3    29    36    1
     4    30    31    1
     5    30    41    1
     6    31    32    1
     7    31    34    1
     8    32    33    1
     9    32    35    1
    10    33    44    1
    11    33    36    1
    12    44    45    1
    13    39    40    1
    14    39    41   am
    15    39    42    2
    16    41    43    1
    17    28    25    1
    18    34    37    1
    19    35    38    1
    20    45    46    1
    21    15    16   ar
    22    15    20   ar
    23    15     6    1
    24    16    17   ar
    25    16    21    2
    26    17    18   ar
    27    17    23    1
    28    18    19   ar
    29    18    22    2
    30    19    20   ar
    31     6     7    1
    32     6    11    1
    33     7     8    1
    34     7     9    1
    35     8    13    1
    36     9    10    1
    37     9    12    1
    38    10    11    1
    39    10     5    1
    40    12    14    1
    41     5     4    1
    42     4     1    1
    43     1     2    2
    44     1     3    1
    45     1    24    1
    46    24    25    1
    47    25    26    2
    48    25    27    1
@<TRIPOS>MOLECULE
UD1
 46 48 0 0 0
SMALL
GASTEIGER

@<TRIPOS>ATOM
      1 P          16.7594   69.6060   -3.0677 P.3     1  UNL1        0.2189
      2 O          16.3626   69.0613   -4.3847 O.2     1  UNL1       -0.5170
      3 O          16.8904   68.4022   -2.0063 O.3     1  UNL1       -0.4371
      4 O          15.6421   70.6485   -2.5600 O.3     1  UNL1       -0.3112
      5 C          15.3370   70.3025   -1.2081 C.3     1  UNL1        0.1811
      6 C          12.7538   68.3438    0.3468 C.3     1  UNL1        0.2383
      7 C          12.4094   69.8073    0.7205 C.3     1  UNL1        0.1895
      8 O          10.9991   69.9796    0.8648 O.3     1  UNL1       -0.3779
      9 C          12.9397   70.5907   -0.5084 C.3     1  UNL1        0.1713
     10 C          13.9630   69.6334   -1.1495 C.3     1  UNL1        0.1764
     11 O          14.0266   68.4575   -0.3246 O.3     1  UNL1       -0.3308
     12 O          11.8744   70.8764   -1.4174 O.3     1  UNL1       -0.3794
     13 H          10.8525   70.9071    1.0969 H       1  UNL1        0.2106
     14 H          11.2401   71.4275   -0.9399 H       1  UNL1        0.2105
     15 N          12.8757   67.5161    1.5474 N.ar    1  UNL1       -0.2551
     16 C          12.4193   66.2516    1.5340 C.ar    1  UNL1        0.3323
     17 N          12.5218   65.4662    2.6226 N.ar    1  UNL1       -0.2743
     18 C          13.0795   65.9424    3.7540 C.ar    1  UNL1        0.2626
     19 C          13.5587   67.2737    3.7837 C.ar    1  UNL1        0.0795
     20 C          13.4481   68.0379    2.6760 C.ar    1  UNL1        0.0869
     21 O          11.9139   65.8077    0.5211 O.2     1  UNL1       -0.2464
     22 O          13.1684   65.2347    4.7402 O.2     1  UNL1       -0.2670
     23 H          12.1916   64.5550    2.5937 H       1  UNL1        0.1734
     24 O          18.1744   70.3599   -3.2029 O.3     1  UNL1       -0.2703
     25 P          17.9099   71.6942   -4.0625 P.3     1  UNL1        0.2208
     26 O          17.4322   72.7709   -3.1673 O.2     1  UNL1       -0.5170
     27 O          16.7957   71.3975   -5.1861 O.3     1  UNL1       -0.4371
     28 O          19.2779   72.1556   -4.7741 O.3     1  UNL1       -0.2865
     29 C          20.1388   71.0156   -4.7958 C.3     1  UNL1        0.2611
     30 C          21.5954   71.4823   -4.7786 C.3     1  UNL1        0.1582
     31 C          21.8499   72.3758   -5.9978 C.3     1  UNL1        0.1625
     32 C          21.4231   71.6173   -7.2590 C.3     1  UNL1        0.1686
     33 C          19.9781   71.1430   -7.0903 C.3     1  UNL1        0.1760
     34 O          23.2402   72.6960   -6.0750 O.3     1  UNL1       -0.3801
     35 O          21.5140   72.4838   -8.3915 O.3     1  UNL1       -0.3794
     36 O          19.8890   70.2556   -5.9763 O.3     1  UNL1       -0.3263
     37 H          23.3547   73.2579   -6.8538 H       1  UNL1        0.2105
     38 H          21.2362   71.9677   -9.1616 H       1  UNL1        0.2105
     39 C          23.0536   72.1590   -2.9483 C.2     1  UNL1        0.2231
     40 C          23.3175   72.9393   -1.6858 C.3     1  UNL1        0.0946
     41 N          21.8525   72.2405   -3.5525 N.am    1  UNL1       -0.2994
     42 O          23.9224   71.4570   -3.4200 O.2     1  UNL1       -0.2751
     43 H          21.1569   72.8020   -3.1751 H       1  UNL1        0.1496
     44 C          19.5312   70.4122   -8.3580 C.3     1  UNL1        0.1693
     45 O          18.7615   71.2984   -9.1730 O.3     1  UNL1       -0.3794
     46 H          18.5002   70.7999   -9.9590 H       1  UNL1        0.2105
@<TRIPOS>BOND
     1    29    30    1
     2    29    28    1
     3    29    36    1
     4    30    31    1
     5    30    41    1
     6    31    32    1
     7    31    34    1
     8    32    33    1
     9    32    35    1
    10    33    44    1
    11    33    36    1
    12    44    45    1
    13    39    40    1
    14    39    41   am
    15    39    42    2
    16    41    43    1
    17    28    25    1
    18    34    37    1
    19    35    38    1
    20    45    46    1
    21    15    16   ar
    22    15    20   ar
    23    15     6    1
    24    16    17   ar
    25    16    21    2
    26    17    18   ar
    27    17    23    1
    28    18    19   ar
    29    18    22    2
    30    19    20   ar
    31     6     7    1
    32     6    11    1
    33     7     8    1
    34     7     9    1
    35     8    13    1
    36     9    10    1
    37     9    12    1
    38    10    11    1
    39    10     5    1
    40    12    14    1
    41     5     4    1
    42     4     1    1
    43     1     2    2
    44     1     3    1
    45     1    24    1
    46    24    25    1
    47    25    26    2
    48    25    27    1
@<TRIPOS>MOLECULE
UD1
 46 48 0 0 0
SMALL
GASTEIGER

@<TRIPOS>ATOM
      1 P          22.7828   71.3604   -2.7718 P.3     1  UNL1        0.2189
      2 O          24.1578   70.8530   -2.9742 O.2     1  UNL1       -0.5170
      3 O          22.6744   72.8606   -3.3464 O.3     1  UNL1       -0.4371
      4 O          22.4385   71.3631   -1.1989 O.3     1  UNL1       -0.3112
      5 C          23.6802   71.2428   -0.5031 C.3     1  UNL1        0.1811
      6 C          23.9923   72.9563    2.6423 C.3     1  UNL1        0.2383
      7 C          22.6583   73.4744    2.0487 C.3     1  UNL1        0.1895
      8 O          21.7313   73.8024    3.0843 O.3     1  UNL1       -0.3779
      9 C          22.1671   72.2498    1.2338 C.3     1  UNL1        0.1713
     10 C          23.4443   71.4206    0.9976 C.3     1  UNL1        0.1764
     11 O          24.5405   72.1442    1.5824 O.3     1  UNL1       -0.3308
     12 O          21.2086   71.5011    1.9844 O.3     1  UNL1       -0.3794
     13 H          20.9263   74.1172    2.6502 H       1  UNL1        0.2106
     14 H          20.4615   72.0913    2.1507 H       1  UNL1        0.2105
     15 N          24.8885   74.0698    2.9556 N.ar    1  UNL1       -0.2551
     16 C          25.3434   74.8578    1.9659 C.ar    1  UNL1        0.3323
     17 N          26.1658   75.8916    2.2253 N.ar    1  UNL1       -0.2743
     18 C          26.5560   76.1486    3.4901 C.ar    1  UNL1        0.2626
     19 C          26.0894   75.3233    4.5409 C.ar    1  UNL1        0.0795
     20 C          25.2611   74.2965    4.2532 C.ar    1  UNL1        0.0869
     21 O          25.0004   74.6388    0.8200 O.2     1  UNL1       -0.2464
     22 O          27.3033   77.0800    3.7253 O.2     1  UNL1       -0.2670
     23 H          26.4804   76.4525    1.4997 H       1  UNL1        0.1734
     24 O          21.7408   70.4109   -3.5475 O.3     1  UNL1       -0.2703
     25 P          20.2667   70.9440   -3.1840 P.3     1  UNL1        0.2208
     26 O          20.2928   72.4178   -3.0566 O.2     1  UNL1       -0.5170
     27 O          19.7886   70.2941   -1.7908 O.3     1  UNL1       -0.4371
     28 O          19.2402   70.5244   -4.3505 O.3     1  UNL1       -0.2865
     29 C          18.7027   71.7355   -4.8851 C.3     1  UNL1        0.2611
     30 C          17.2262   71.5257   -5.2254 C.3     1  UNL1        0.1582
     31 C          17.1032   70.3844   -6.2412 C.3     1  UNL1        0.1625
     32 C          18.0105   70.6925   -7.4369 C.3     1  UNL1        0.1686
     33 C          19.4288   70.9621   -6.9299 C.3     1  UNL1        0.1760
     34 O          15.7475   70.2776   -6.6795 O.3     1  UNL1       -0.3801
     35 O          18.0241   69.5749   -8.3271 O.3     1  UNL1       -0.3794
     36 O          19.4233   72.0949   -6.0619 O.3     1  UNL1       -0.3263
     37 H          15.7159   69.5494   -7.3152 H       1  UNL1        0.2105
     38 H          18.6064   69.8107   -9.0632 H       1  UNL1        0.2105
     39 C          16.3045   69.8901   -3.6732 C.2     1  UNL1        0.2231
     40 C          15.5432   69.5364   -2.4212 C.3     1  UNL1        0.0946
     41 N          16.4871   71.1817   -4.0090 N.am    1  UNL1       -0.2994
     42 O          16.7522   69.0117   -4.3790 O.2     1  UNL1       -0.2751
     43 H          16.1287   71.8848   -3.4444 H       1  UNL1        0.1496
     44 C          20.3503   71.2391   -8.1195 C.3     1  UNL1        0.1693
     45 O          20.9134   72.5463   -7.9921 O.3     1  UNL1       -0.3794
     46 H          21.4856   72.6805   -8.7597 H       1  UNL1        0.2105
@<TRIPOS>BOND
     1    29    30    1
     2    29    28    1
     3    29    36    1
     4    30    31    1
     5    30    41    1
     6    31    32    1
     7    31    34    1
     8    32    33    1
     9    32    35    1
    10    33    44    1
    11    33    36    1
    12    44    45    1
    13    39    40    1
    14    39    41   am
    15    39    42    2
    16    41    43    1
    17    28    25    1
    18    34    37    1
    19    35    38    1
    20    45    46    1
    21    15    16   ar
    22    15    20   ar
    23    15     6    1
    24    16    17   ar
    25    16    21    2
    26    17    18   ar
    27    17    23    1
    28    18    19   ar
    29    18    22    2
    30    19    20   ar
    31     6     7    1
    32     6    11    1
    33     7     8    1
    34     7     9    1
    35     8    13    1
    36     9    10    1
    37     9    12    1
    38    10    11    1
    39    10     5    1
    40    12    14    1
    41     5     4    1
    42     4     1    1
    43     1     2    2
    44     1     3    1
    45     1    24    1
    46    24    25    1
    47    25    26    2
    48    25    27    1
@<TRIPOS>MOLECULE
UD1
 46 48 0 0 0
SMALL
GASTEIGER

@<TRIPOS>ATOM
      1 P          16.7281   69.6782   -2.4737 P.3     1  UNL1        0.2189
      2 O          16.4701   71.1340   -2.4186 O.2     1  UNL1       -0.5170
      3 O          16.2390   69.0998   -3.8945 O.3     1  UNL1       -0.4371
      4 O          15.9193   68.9453   -1.2898 O.3     1  UNL1       -0.3112
      5 C          14.9888   69.8978   -0.7729 C.3     1  UNL1        0.1811
      6 C          12.2583   68.0060    0.6029 C.3     1  UNL1        0.2383
      7 C          11.9752   69.4666    1.0349 C.3     1  UNL1        0.1895
      8 O          10.5713   69.7050    1.1420 O.3     1  UNL1       -0.3779
      9 C          12.5863   70.2772   -0.1375 C.3     1  UNL1        0.1713
     10 C          13.5816   69.2988   -0.7904 C.3     1  UNL1        0.1764
     11 O          13.5575   68.0844   -0.0211 O.3     1  UNL1       -0.3308
     12 O          11.5686   70.6593   -1.0655 O.3     1  UNL1       -0.3794
     13 H          10.4635   70.6271    1.4133 H       1  UNL1        0.2106
     14 H          10.9468   71.2200   -0.5829 H       1  UNL1        0.2105
     15 N          12.2969   67.1186    1.7659 N.ar    1  UNL1       -0.2551
     16 C          13.4769   66.8174    2.3353 C.ar    1  UNL1        0.3323
     17 N          13.5421   66.0070    3.4082 N.ar    1  UNL1       -0.2743
     18 C          12.4172   65.4739    3.9264 C.ar    1  UNL1        0.2626
     19 C          11.1688   65.7779    3.3331 C.ar    1  UNL1        0.0795
     20 C          11.1318   66.5978    2.2609 C.ar    1  UNL1        0.0869
     21 O          14.5002   67.2905    1.8795 O.2     1  UNL1       -0.2464
     22 O          12.4754   64.7373    4.8935 O.2     1  UNL1       -0.2670
     23 H          14.4014   65.8043    3.8091 H       1  UNL1        0.1734
     24 O          18.3038   69.4053   -2.2958 O.3     1  UNL1       -0.2703
     25 P          19.0459   70.8190   -2.4959 P.3     1  UNL1        0.2208
     26 O          20.5040   70.6397   -2.3207 O.2     1  UNL1       -0.5170
     27 O          18.5006   71.8713   -1.4062 O.3     1  UNL1       -0.4371
     28 O          18.7481   71.3781   -3.9755 O.3     1  UNL1       -0.2865
     29 C          19.6237   70.6832   -4.8653 C.3     1  UNL1        0.2611
     30 C          20.4929   71.6964   -5.6122 C.3     1  UNL1        0.1582
     31 C          19.5865   72.6592   -6.3874 C.3     1  UNL1        0.1625
     32 C          18.6389   71.8382   -7.2684 C.3     1  UNL1        0.1686
     33 C          17.9072   70.8163   -6.3957 C.3     1  UNL1        0.1760
     34 O          20.3858   73.5149   -7.2061 O.3     1  UNL1       -0.3801
     35 O          17.6888   72.7074   -7.8876 O.3     1  UNL1       -0.3794
     36 O          18.8514   69.9293   -5.7973 O.3     1  UNL1       -0.3263
     37 H          19.7768   74.1025   -7.6742 H       1  UNL1        0.2105
     38 H          17.1130   72.1507   -8.4309 H       1  UNL1        0.2105
     39 C          22.5897   72.7310   -4.9289 C.2     1  UNL1        0.2231
     40 C          23.4222   73.5064   -3.9399 C.3     1  UNL1        0.0946
     41 N          21.3019   72.4499   -4.6520 N.am    1  UNL1       -0.2994
     42 O          23.0795   72.3595   -5.9740 O.2     1  UNL1       -0.2751
     43 H          20.9097   72.7469   -3.8156 H       1  UNL1        0.1496
     44 C          16.9340   70.0126   -7.2608 C.3     1  UNL1        0.1693
     45 O          15.6285   70.5864   -7.1684 O.3     1  UNL1       -0.3794
     46 H          15.0476   70.0515   -7.7262 H       1  UNL1        0.2105
@<TRIPOS>BOND
     1    29    30    1
     2    29    28    1
     3    29    36    1
     4    30    31    1
     5    30    41    1
     6    31    32    1
     7    31    34    1
     8    32    33    1
     9    32    35    1
    10    33    44    1
    11    33    36    1
    12    44    45    1
    13    39    40    1
    14    39    41   am
    15    39    42    2
    16    41    43    1
    17    28    25    1
    18    34    37    1
    19    35    38    1
    20    45    46    1
    21    15    16   ar
    22    15    20   ar
    23    15     6    1
    24    16    17   ar
    25    16    21    2
    26    17    18   ar
    27    17    23    1
    28    18    19   ar
    29    18    22    2
    30    19    20   ar
    31     6     7    1
    32     6    11    1
    33     7     8    1
    34     7     9    1
    35     8    13    1
    36     9    10    1
    37     9    12    1
    38    10    11    1
    39    10     5    1
    40    12    14    1
    41     5     4    1
    42     4     1    1
    43     1     2    2
    44     1     3    1
    45     1    24    1
    46    24    25    1
    47    25    26    2
    48    25    27    1
@<TRIPOS>MOLECULE
UD1
 46 48 0 0 0
SMALL
GASTEIGER

@<TRIPOS>ATOM
      1 P          22.7688   72.2499   -4.1619 P.3     1  UNL1        0.2189
      2 O          23.0295   72.3646   -5.6137 O.2     1  UNL1       -0.5170
      3 O          24.0915   71.7086   -3.4202 O.3     1  UNL1       -0.4371
      4 O          21.5564   71.2195   -3.9146 O.3     1  UNL1       -0.3112
      5 C          20.6896   71.8234   -2.9532 C.3     1  UNL1        0.1811
      6 C          18.1203   71.0733   -5.3539 C.3     1  UNL1        0.2383
      7 C          18.2901   69.7630   -4.5449 C.3     1  UNL1        0.1895
      8 O          17.0586   69.0437   -4.4725 O.3     1  UNL1       -0.3779
      9 C          18.7037   70.2942   -3.1478 C.3     1  UNL1        0.1713
     10 C          19.2406   71.7108   -3.4298 C.3     1  UNL1        0.1764
     11 O          19.1756   71.9199   -4.8508 O.3     1  UNL1       -0.3308
     12 O          17.5717   70.3453   -2.2768 O.3     1  UNL1       -0.3794
     13 H          17.2319   68.2426   -3.9590 H       1  UNL1        0.2106
     14 H          17.2466   69.4395   -2.1879 H       1  UNL1        0.2105
     15 N          18.2951   70.8262   -6.7856 N.ar    1  UNL1       -0.2551
     16 C          17.2176   70.6201   -7.5627 C.ar    1  UNL1        0.3323
     17 N          17.3483   70.3943   -8.8833 N.ar    1  UNL1       -0.2743
     18 C          18.5716   70.3620   -9.4493 C.ar    1  UNL1        0.2626
     19 C          19.7149   70.5714   -8.6419 C.ar    1  UNL1        0.0795
     20 C          19.5547   70.8010   -7.3209 C.ar    1  UNL1        0.0869
     21 O          16.1075   70.6463   -7.0669 O.2     1  UNL1       -0.2464
     22 O          18.6913   70.1532  -10.6424 O.2     1  UNL1       -0.2670
     23 H          16.5599   70.2525   -9.4296 H       1  UNL1        0.1734
     24 O          22.3744   73.6939   -3.5717 O.3     1  UNL1       -0.2703
     25 P          23.6883   74.2742   -2.8462 P.3     1  UNL1        0.2208
     26 O          23.5674   75.7422   -2.7078 O.2     1  UNL1       -0.5170
     27 O          24.9885   73.9243   -3.7290 O.3     1  UNL1       -0.4371
     28 O          23.8362   73.6083   -1.3884 O.3     1  UNL1       -0.2865
     29 C          23.0856   74.4202   -0.4837 C.3     1  UNL1        0.2611
     30 C          23.9807   74.8331    0.6860 C.3     1  UNL1        0.1582
     31 C          24.4975   73.5737    1.3906 C.3     1  UNL1        0.1625
     32 C          23.2993   72.6950    1.7650 C.3     1  UNL1        0.1686
     33 C          22.4571   72.4409    0.5131 C.3     1  UNL1        0.1760
     34 O          25.2113   73.9444    2.5715 O.3     1  UNL1       -0.3801
     35 O          23.7649   71.4504    2.2903 O.3     1  UNL1       -0.3794
     36 O          21.9676   73.6799    0.0016 O.3     1  UNL1       -0.3263
     37 H          25.5179   73.1241    2.9817 H       1  UNL1        0.2105
     38 H          22.9802   70.9291    2.5117 H       1  UNL1        0.2105
     39 C          25.2561   76.9039    0.5458 C.2     1  UNL1        0.2231
     40 C          26.4218   77.7076    0.0286 C.3     1  UNL1        0.0946
     41 N          25.1132   75.6142    0.1843 N.am    1  UNL1       -0.2994
     42 O          24.4462   77.4184    1.2870 O.2     1  UNL1       -0.2751
     43 H          25.7612   75.2023   -0.4090 H       1  UNL1        0.1496
     44 C          21.2751   71.5370    0.8698 C.3     1  UNL1        0.1693
     45 O          21.7344   70.1937    1.0330 O.3     1  UNL1       -0.3794
     46 H          20.9608   69.6586    1.2561 H       1  UNL1        0.2105
@<TRIPOS>BOND
     1    29    30    1
     2    29    28    1
     3    29    36    1
     4    30    31    1
     5    30    41    1
     6    31    32    1
     7    31    34    1
     8    32    33    1
     9    32    35    1
    10    33    44    1
    11    33    36    1
    12    44    45    1
    13    39    40    1
    14    39    41   am
    15    39    42    2
    16    41    43    1
    17    28    25    1
    18    34    37    1
    19    35    38    1
    20    45    46    1
    21    15    16   ar
    22    15    20   ar
    23    15     6    1
    24    16    17   ar
    25    16    21    2
    26    17    18   ar
    27    17    23    1
    28    18    19   ar
    29    18    22    2
    30    19    20   ar
    31     6     7    1
    32     6    11    1
    33     7     8    1
    34     7     9    1
    35     8    13    1
    36     9    10    1
    37     9    12    1
    38    10    11    1
    39    10     5    1
    40    12    14    1
    41     5     4    1
    42     4     1    1
    43     1     2    2
    44     1     3    1
    45     1    24    1
    46    24    25    1
    47    25    26    2
    48    25    27    1
@<TRIPOS>MOLECULE
UD1
 46 48 0 0 0
SMALL
GASTEIGER

@<TRIPOS>ATOM
      1 P          22.0313   72.9541   -5.2595 P.3     1  UNL1        0.2189
      2 O          22.3400   74.3825   -5.0286 O.2     1  UNL1       -0.5170
      3 O          23.1400   72.3167   -6.2378 O.3     1  UNL1       -0.4371
      4 O          20.5777   72.8230   -5.9397 O.3     1  UNL1       -0.3112
      5 C          20.7620   72.1422   -7.1819 C.3     1  UNL1        0.1811
      6 C          17.8571   70.2523   -6.2240 C.3     1  UNL1        0.2383
      7 C          17.3856   71.1050   -7.4285 C.3     1  UNL1        0.1895
      8 O          16.3674   70.4283   -8.1664 O.3     1  UNL1       -0.3779
      9 C          18.6847   71.2316   -8.2662 C.3     1  UNL1        0.1713
     10 C          19.8116   70.9460   -7.2548 C.3     1  UNL1        0.1764
     11 O          19.1951   70.7326   -5.9735 O.3     1  UNL1       -0.3308
     12 O          18.6951   70.2683   -9.3219 O.3     1  UNL1       -0.3794
     13 H          16.1186   71.0096   -8.8984 H       1  UNL1        0.2106
     14 H          17.9345   70.4632   -9.8854 H       1  UNL1        0.2105
     15 N          17.0006   70.4800   -5.0595 N.ar    1  UNL1       -0.2551
     16 C          16.4549   69.4317   -4.4187 C.ar    1  UNL1        0.3323
     17 N          15.6663   69.6112   -3.3425 N.ar    1  UNL1       -0.2743
     18 C          15.4025   70.8548   -2.8933 C.ar    1  UNL1        0.2626
     19 C          15.9656   71.9676   -3.5622 C.ar    1  UNL1        0.0795
     20 C          16.7573   71.7587   -4.6359 C.ar    1  UNL1        0.0869
     21 O          16.6836   68.3039   -4.8117 O.2     1  UNL1       -0.2464
     22 O          14.6858   71.0184   -1.9233 O.2     1  UNL1       -0.2670
     23 H          15.2850   68.8433   -2.8895 H       1  UNL1        0.1734
     24 O          22.0389   72.1696   -3.8548 O.3     1  UNL1       -0.2703
     25 P          23.5414   72.2515   -3.2847 P.3     1  UNL1        0.2208
     26 O          24.3587   73.1100   -4.1701 O.2     1  UNL1       -0.5170
     27 O          24.1784   70.7737   -3.2341 O.3     1  UNL1       -0.4371
     28 O          23.5207   72.8764   -1.8015 O.3     1  UNL1       -0.2865
     29 C          22.1621   73.2097   -1.5112 C.3     1  UNL1        0.2611
     30 C          22.0862   74.6681   -1.0559 C.3     1  UNL1        0.1582
     31 C          22.9657   74.8519    0.1860 C.3     1  UNL1        0.1625
     32 C          22.5506   73.8180    1.2380 C.3     1  UNL1        0.1686
     33 C          22.5944   72.4232    0.6103 C.3     1  UNL1        0.1760
     34 O          22.7872   76.1697    0.7085 O.3     1  UNL1       -0.3801
     35 O          23.4522   73.8740    2.3450 O.3     1  UNL1       -0.3794
     36 O          21.6747   72.3554   -0.4787 O.3     1  UNL1       -0.3263
     37 H          23.3575   76.2416    1.4862 H       1  UNL1        0.2105
     38 H          23.1554   73.2082    2.9815 H       1  UNL1        0.2105
     39 C          23.8426   75.9663   -2.1348 C.2     1  UNL1        0.2231
     40 C          24.3340   76.8663   -3.2397 C.3     1  UNL1        0.0946
     41 N          22.5642   75.5420   -2.1292 N.am    1  UNL1       -0.2994
     42 O          24.5980   75.6245   -1.2501 O.2     1  UNL1       -0.2751
     43 H          21.9594   75.8156   -2.8370 H       1  UNL1        0.1496
     44 C          22.2127   71.3797    1.6622 C.3     1  UNL1        0.1693
     45 O          21.4938   70.3141    1.0378 O.3     1  UNL1       -0.3794
     46 H          21.2726   69.6804    1.7336 H       1  UNL1        0.2105
@<TRIPOS>BOND
     1    29    30    1
     2    29    28    1
     3    29    36    1
     4    30    31    1
     5    30    41    1
     6    31    32    1
     7    31    34    1
     8    32    33    1
     9    32    35    1
    10    33    44    1
    11    33    36    1
    12    44    45    1
    13    39    40    1
    14    39    41   am
    15    39    42    2
    16    41    43    1
    17    28    25    1
    18    34    37    1
    19    35    38    1
    20    45    46    1
    21    15    16   ar
    22    15    20   ar
    23    15     6    1
    24    16    17   ar
    25    16    21    2
    26    17    18   ar
    27    17    23    1
    28    18    19   ar
    29    18    22    2
    30    19    20   ar
    31     6     7    1
    32     6    11    1
    33     7     8    1
    34     7     9    1
    35     8    13    1
    36     9    10    1
    37     9    12    1
    38    10    11    1
    39    10     5    1
    40    12    14    1
    41     5     4    1
    42     4     1    1
    43     1     2    2
    44     1     3    1
    45     1    24    1
    46    24    25    1
    47    25    26    2
    48    25    27    1
@<TRIPOS>MOLECULE
UD1
 46 48 0 0 0
SMALL
GASTEIGER

@<TRIPOS>ATOM
      1 P          21.6384   73.2034   -6.5321 P.3     1  UNL1        0.2189
      2 O          22.0747   74.5603   -6.9285 O.2     1  UNL1       -0.5170
      3 O          22.8538   72.1675   -6.7371 O.3     1  UNL1       -0.4371
      4 O          20.3910   72.7532   -7.4454 O.3     1  UNL1       -0.3112
      5 C          20.8071   71.5966   -8.1732 C.3     1  UNL1        0.1811
      6 C          17.7709   70.1075   -6.9520 C.3     1  UNL1        0.2383
      7 C          17.3033   71.1037   -8.0425 C.3     1  UNL1        0.1895
      8 O          16.1110   70.6425   -8.6788 O.3     1  UNL1       -0.3779
      9 C          18.4987   71.0898   -9.0304 C.3     1  UNL1        0.1713
     10 C          19.6765   70.5666   -8.1856 C.3     1  UNL1        0.1764
     11 O          19.1883   70.3604   -6.8490 O.3     1  UNL1       -0.3308
     12 O          18.2319   70.2120  -10.1263 O.3     1  UNL1       -0.3794
     13 H          15.8739   71.3044   -9.3430 H       1  UNL1        0.2106
     14 H          17.4513   70.5589  -10.5783 H       1  UNL1        0.2105
     15 N          17.1040   70.3807   -5.6784 N.ar    1  UNL1       -0.2551
     16 C          16.4705   69.3871   -5.0314 C.ar    1  UNL1        0.3323
     17 N          15.8520   69.6087   -3.8564 N.ar    1  UNL1       -0.2743
     18 C          15.8505   70.8419   -3.3113 C.ar    1  UNL1        0.2626
     19 C          16.5085   71.8985   -3.9848 C.ar    1  UNL1        0.0795
     20 C          17.1255   71.6472   -5.1593 C.ar    1  UNL1        0.0869
     21 O          16.4631   68.2693   -5.5102 O.2     1  UNL1       -0.2464
     22 O          15.2875   71.0445   -2.2514 O.2     1  UNL1       -0.2670
     23 H          15.4041   68.8792   -3.4010 H       1  UNL1        0.1734
     24 O          21.1950   73.2127   -4.9854 O.3     1  UNL1       -0.2703
     25 P          22.5139   73.5455   -4.1257 P.3     1  UNL1        0.2208
     26 O          22.9637   74.9226   -4.4258 O.2     1  UNL1       -0.5170
     27 O          23.6814   72.5050   -4.5084 O.3     1  UNL1       -0.4371
     28 O          22.1788   73.4205   -2.5564 O.3     1  UNL1       -0.2865
     29 C          23.2281   72.6492   -1.9687 C.3     1  UNL1        0.2611
     30 C          22.6363   71.3842   -1.3446 C.3     1  UNL1        0.1582
     31 C          21.6011   71.7840   -0.2872 C.3     1  UNL1        0.1625
     32 C          22.2592   72.7524    0.7014 C.3     1  UNL1        0.1686
     33 C          22.8769   73.9159   -0.0770 C.3     1  UNL1        0.1760
     34 O          21.1506   70.6190    0.4065 O.3     1  UNL1       -0.3801
     35 O          21.2747   73.2516    1.6086 O.3     1  UNL1       -0.3794
     36 O          23.8801   73.4236   -0.9645 O.3     1  UNL1       -0.3263
     37 H          20.5025   70.9160    1.0599 H       1  UNL1        0.2105
     38 H          21.7305   73.8563    2.2112 H       1  UNL1        0.2105
     39 C          20.6627   70.6834   -2.5888 C.2     1  UNL1        0.2231
     40 C          19.9979   69.8560   -3.6592 C.3     1  UNL1        0.0946
     41 N          21.9901   70.5810   -2.3846 N.am    1  UNL1       -0.2994
     42 O          20.0023   71.4411   -1.9106 O.2     1  UNL1       -0.2751
     43 H          22.5187   69.9745   -2.9271 H       1  UNL1        0.1496
     44 C          23.5088   74.9057    0.9039 C.3     1  UNL1        0.1693
     45 O          24.8251   75.2417    0.4605 O.3     1  UNL1       -0.3794
     46 H          25.1867   75.8653    1.1048 H       1  UNL1        0.2105
@<TRIPOS>BOND
     1    29    30    1
     2    29    28    1
     3    29    36    1
     4    30    31    1
     5    30    41    1
     6    31    32    1
     7    31    34    1
     8    32    33    1
     9    32    35    1
    10    33    44    1
    11    33    36    1
    12    44    45    1
    13    39    40    1
    14    39    41   am
    15    39    42    2
    16    41    43    1
    17    28    25    1
    18    34    37    1
    19    35    38    1
    20    45    46    1
    21    15    16   ar
    22    15    20   ar
    23    15     6    1
    24    16    17   ar
    25    16    21    2
    26    17    18   ar
    27    17    23    1
    28    18    19   ar
    29    18    22    2
    30    19    20   ar
    31     6     7    1
    32     6    11    1
    33     7     8    1
    34     7     9    1
    35     8    13    1
    36     9    10    1
    37     9    12    1
    38    10    11    1
    39    10     5    1
    40    12    14    1
    41     5     4    1
    42     4     1    1
    43     1     2    2
    44     1     3    1
    45     1    24    1
    46    24    25    1
    47    25    26    2
    48    25    27    1
@<TRIPOS>MOLECULE
UD1
 46 48 0 0 0
SMALL
GASTEIGER

@<TRIPOS>ATOM
      1 P          22.8875   71.3502   -2.6025 P.3     1  UNL1        0.2189
      2 O          24.1641   71.0141   -3.2705 O.2     1  UNL1       -0.5170
      3 O          22.6729   72.9458   -2.6269 O.3     1  UNL1       -0.4371
      4 O          22.9302   70.8387   -1.0763 O.3     1  UNL1       -0.3112
      5 C          21.6080   70.9813   -0.5549 C.3     1  UNL1        0.1811
      6 C          23.2707   71.9494    2.4824 C.3     1  UNL1        0.2383
      7 C          22.6540   73.2637    1.9417 C.3     1  UNL1        0.1895
      8 O          22.3097   74.1448    3.0114 O.3     1  UNL1       -0.3779
      9 C          21.3828   72.7521    1.2153 C.3     1  UNL1        0.1713
     10 C          21.6785   71.2639    0.9466 C.3     1  UNL1        0.1764
     11 O          23.0045   70.9947    1.4330 O.3     1  UNL1       -0.3308
     12 O          20.2347   72.8972    2.0540 O.3     1  UNL1       -0.3794
     13 H          21.9335   74.9400    2.6094 H       1  UNL1        0.2106
     14 H          20.1381   73.8419    2.2343 H       1  UNL1        0.2105
     15 N          24.7114   72.0990    2.6908 N.ar    1  UNL1       -0.2551
     16 C          25.5195   71.0341    2.5474 C.ar    1  UNL1        0.3323
     17 N          26.8489   71.1434    2.7291 N.ar    1  UNL1       -0.2743
     18 C          27.3930   72.3292    3.0692 C.ar    1  UNL1        0.2626
     19 C          26.5532   73.4570    3.2293 C.ar    1  UNL1        0.0795
     20 C          25.2238   73.3205    3.0357 C.ar    1  UNL1        0.0869
     21 O          25.0437   69.9579    2.2409 O.2     1  UNL1       -0.2464
     22 O          28.5943   72.4281    3.2384 O.2     1  UNL1       -0.2670
     23 H          27.4174   70.3659    2.6169 H       1  UNL1        0.1734
     24 O          21.6723   70.6324   -3.3751 O.3     1  UNL1       -0.2703
     25 P          21.0203   71.7383   -4.3452 P.3     1  UNL1        0.2208
     26 O          22.0834   72.3708   -5.1567 O.2     1  UNL1       -0.5170
     27 O          20.2821   72.8620   -3.4594 O.3     1  UNL1       -0.4371
     28 O          19.9488   71.0351   -5.3188 O.3     1  UNL1       -0.2865
     29 C          19.1380   72.0773   -5.8644 C.3     1  UNL1        0.2611
     30 C          17.6625   71.7259   -5.6655 C.3     1  UNL1        0.1582
     31 C          17.3673   70.3912   -6.3591 C.3     1  UNL1        0.1625
     32 C          17.8239   70.4859   -7.8188 C.3     1  UNL1        0.1686
     33 C          19.2884   70.9280   -7.8551 C.3     1  UNL1        0.1760
     34 O          15.9643   70.1257   -6.3092 O.3     1  UNL1       -0.3801
     35 O          17.6934   69.2079   -8.4443 O.3     1  UNL1       -0.3794
     36 O          19.4180   72.2166   -7.2556 O.3     1  UNL1       -0.3263
     37 H          15.8240   69.2792   -6.7553 H       1  UNL1        0.2105
     38 H          17.9916   69.3124   -9.3590 H       1  UNL1        0.2105
     39 C          16.2303   72.1105   -3.7329 C.2     1  UNL1        0.2231
     40 C          15.9354   71.9904   -2.2595 C.3     1  UNL1        0.0946
     41 N          17.3754   71.6090   -4.2343 N.am    1  UNL1       -0.2994
     42 O          15.4368   72.6594   -4.4672 O.2     1  UNL1       -0.2751
     43 H          18.0107   71.1699   -3.6468 H       1  UNL1        0.1496
     44 C          19.7639   70.9943   -9.3079 C.3     1  UNL1        0.1693
     45 O          18.6446   71.2249  -10.1659 O.3     1  UNL1       -0.3794
     46 H          18.9870   71.2594  -11.0693 H       1  UNL1        0.2105
@<TRIPOS>BOND
     1    29    30    1
     2    29    28    1
     3    29    36    1
     4    30    31    1
     5    30    41    1
     6    31    32    1
     7    31    34    1
     8    32    33    1
     9    32    35    1
    10    33    44    1
    11    33    36    1
    12    44    45    1
    13    39    40    1
    14    39    41   am
    15    39    42    2
    16    41    43    1
    17    28    25    1
    18    34    37    1
    19    35    38    1
    20    45    46    1
    21    15    16   ar
    22    15    20   ar
    23    15     6    1
    24    16    17   ar
    25    16    21    2
    26    17    18   ar
    27    17    23    1
    28    18    19   ar
    29    18    22    2
    30    19    20   ar
    31     6     7    1
    32     6    11    1
    33     7     8    1
    34     7     9    1
    35     8    13    1
    36     9    10    1
    37     9    12    1
    38    10    11    1
    39    10     5    1
    40    12    14    1
    41     5     4    1
    42     4     1    1
    43     1     2    2
    44     1     3    1
    45     1    24    1
    46    24    25    1
    47    25    26    2
    48    25    27    1
@<TRIPOS>MOLECULE
UD1
 46 48 0 0 0
SMALL
GASTEIGER

@<TRIPOS>ATOM
      1 P          22.6898   73.8020   -4.9246 P.3     1  UNL1        0.2189
      2 O          23.2782   72.5015   -5.3136 O.2     1  UNL1       -0.5170
      3 O          23.4514   74.9894   -5.7007 O.3     1  UNL1       -0.4371
      4 O          22.8518   74.0100   -3.3361 O.3     1  UNL1       -0.3112
      5 C          21.6680   73.4913   -2.7279 C.3     1  UNL1        0.1811
      6 C          23.1449   71.5386   -0.0948 C.3     1  UNL1        0.2383
      7 C          21.7007   71.8174    0.3919 C.3     1  UNL1        0.1895
      8 O          21.2213   70.7487    1.2088 O.3     1  UNL1       -0.3779
      9 C          20.9151   71.8886   -0.9433 C.3     1  UNL1        0.1713
     10 C          21.9972   72.1877   -1.9988 C.3     1  UNL1        0.1764
     11 O          23.2497   72.3183   -1.3050 O.3     1  UNL1       -0.3308
     12 O          20.2744   70.6400   -1.2141 O.3     1  UNL1       -0.3794
     13 H          20.3224   70.9832    1.4779 H       1  UNL1        0.2106
     14 H          19.6545   70.4814   -0.4898 H       1  UNL1        0.2105
     15 N          24.1230   71.9892    0.8959 N.ar    1  UNL1       -0.2551
     16 C          24.7859   71.0845    1.6371 C.ar    1  UNL1        0.3323
     17 N          25.6940   71.4702    2.5530 N.ar    1  UNL1       -0.2743
     18 C          25.9475   72.7799    2.7488 C.ar    1  UNL1        0.2626
     19 C          25.2524   73.7433    1.9796 C.ar    1  UNL1        0.0795
     20 C          24.3507   73.3285    1.0640 C.ar    1  UNL1        0.0869
     21 O          24.5683   69.8996    1.4721 O.2     1  UNL1       -0.2464
     22 O          26.7648   73.1300    3.5800 O.2     1  UNL1       -0.2670
     23 H          26.1663   70.8038    3.0755 H       1  UNL1        0.1734
     24 O          21.1282   73.8217   -5.3116 O.3     1  UNL1       -0.2703
     25 P          20.8327   72.4627   -6.1211 P.3     1  UNL1        0.2208
     26 O          21.4921   71.3283   -5.4377 O.2     1  UNL1       -0.5170
     27 O          21.4080   72.5936   -7.6191 O.3     1  UNL1       -0.4371
     28 O          19.2450   72.2050   -6.1783 O.3     1  UNL1       -0.2865
     29 C          18.9985   70.9805   -5.4847 C.3     1  UNL1        0.2611
     30 C          17.9551   70.1666   -6.2520 C.3     1  UNL1        0.1582
     31 C          16.6672   70.9890   -6.3722 C.3     1  UNL1        0.1625
     32 C          16.2410   71.4399   -4.9711 C.3     1  UNL1        0.1686
     33 C          17.4130   72.1606   -4.3015 C.3     1  UNL1        0.1760
     34 O          15.6387   70.1858   -6.9539 O.3     1  UNL1       -0.3801
     35 O          15.1270   72.3288   -5.0733 O.3     1  UNL1       -0.3794
     36 O          18.5184   71.2672   -4.1730 O.3     1  UNL1       -0.3263
     37 H          14.8490   70.7412   -7.0109 H       1  UNL1        0.2105
     38 H          14.8924   72.5882   -4.1710 H       1  UNL1        0.2105
     39 C          18.1743   70.6616   -8.6271 C.2     1  UNL1        0.2231
     40 C          18.6980   70.3390  -10.0033 C.3     1  UNL1        0.0946
     41 N          18.4640   69.8539   -7.5890 N.am    1  UNL1       -0.2994
     42 O          17.4912   71.6484   -8.4544 O.2     1  UNL1       -0.2751
     43 H          19.0105   69.0640   -7.7270 H       1  UNL1        0.1496
     44 C          16.9872   72.6437   -2.9135 C.3     1  UNL1        0.1693
     45 O          17.4080   71.6969   -1.9293 O.3     1  UNL1       -0.3794
     46 H          17.1205   72.0382   -1.0717 H       1  UNL1        0.2105
@<TRIPOS>BOND
     1    29    30    1
     2    29    28    1
     3    29    36    1
     4    30    31    1
     5    30    41    1
     6    31    32    1
     7    31    34    1
     8    32    33    1
     9    32    35    1
    10    33    44    1
    11    33    36    1
    12    44    45    1
    13    39    40    1
    14    39    41   am
    15    39    42    2
    16    41    43    1
    17    28    25    1
    18    34    37    1
    19    35    38    1
    20    45    46    1
    21    15    16   ar
    22    15    20   ar
    23    15     6    1
    24    16    17   ar
    25    16    21    2
    26    17    18   ar
    27    17    23    1
    28    18    19   ar
    29    18    22    2
    30    19    20   ar
    31     6     7    1
    32     6    11    1
    33     7     8    1
    34     7     9    1
    35     8    13    1
    36     9    10    1
    37     9    12    1
    38    10    11    1
    39    10     5    1
    40    12    14    1
    41     5     4    1
    42     4     1    1
    43     1     2    2
    44     1     3    1
    45     1    24    1
    46    24    25    1
    47    25    26    2
    48    25    27    1
@<TRIPOS>MOLECULE
UD1
 46 48 0 0 0
SMALL
GASTEIGER

@<TRIPOS>ATOM
      1 P          21.8801   71.3925   -0.4205 P.3     1  UNL1        0.2189
      2 O          20.6178   71.7646    0.2554 O.2     1  UNL1       -0.5170
      3 O          22.7546   72.7171   -0.6913 O.3     1  UNL1       -0.4371
      4 O          21.5461   70.6752   -1.8229 O.3     1  UNL1       -0.3112
      5 C          21.1134   71.6998   -2.7191 C.3     1  UNL1        0.1811
      6 C          20.4173   71.1204   -6.1987 C.3     1  UNL1        0.2383
      7 C          20.8835   72.5966   -6.1366 C.3     1  UNL1        0.1895
      8 O          21.5414   72.9761   -7.3459 O.3     1  UNL1       -0.3779
      9 C          21.8797   72.5738   -4.9482 C.3     1  UNL1        0.1713
     10 C          21.4842   71.3150   -4.1522 C.3     1  UNL1        0.1764
     11 O          20.3480   70.7297   -4.8108 O.3     1  UNL1       -0.3308
     12 O          23.2236   72.4710   -5.4239 O.3     1  UNL1       -0.3794
     13 H          21.8049   73.9010   -7.2431 H       1  UNL1        0.2106
     14 H          23.3902   73.2564   -5.9620 H       1  UNL1        0.2105
     15 N          19.1013   71.0174   -6.8302 N.ar    1  UNL1       -0.2551
     16 C          19.0107   70.9039   -8.1667 C.ar    1  UNL1        0.3323
     17 N          17.8136   70.8035   -8.7743 N.ar    1  UNL1       -0.2743
     18 C          16.6785   70.8248   -8.0468 C.ar    1  UNL1        0.2626
     19 C          16.7592   70.9499   -6.6395 C.ar    1  UNL1        0.0795
     20 C          17.9731   71.0434   -6.0555 C.ar    1  UNL1        0.0869
     21 O          20.0254   70.8832   -8.8364 O.2     1  UNL1       -0.2464
     22 O          15.5955   70.7389   -8.5955 O.2     1  UNL1       -0.2670
     23 H          17.7671   70.7175   -9.7389 H       1  UNL1        0.1734
     24 O          22.7117   70.3812    0.5147 O.3     1  UNL1       -0.2703
     25 P          23.6491   71.2858    1.4593 P.3     1  UNL1        0.2208
     26 O          24.3337   72.3096    0.6395 O.2     1  UNL1       -0.5170
     27 O          24.7469   70.3532    2.1785 O.3     1  UNL1       -0.4371
     28 O          22.7465   72.0099    2.5780 O.3     1  UNL1       -0.2865
     29 C          22.9659   73.4151    2.4419 C.3     1  UNL1        0.2611
     30 C          23.8493   73.9019    3.5919 C.3     1  UNL1        0.1582
     31 C          23.1569   73.5888    4.9231 C.3     1  UNL1        0.1625
     32 C          21.7435   74.1799    4.8913 C.3     1  UNL1        0.1686
     33 C          21.0178   73.6695    3.6446 C.3     1  UNL1        0.1760
     34 O          23.8986   74.1702    5.9970 O.3     1  UNL1       -0.3801
     35 O          21.0296   73.7749    6.0609 O.3     1  UNL1       -0.3794
     36 O          21.7133   74.0956    2.4736 O.3     1  UNL1       -0.3263
     37 H          23.4289   73.9489    6.8129 H       1  UNL1        0.2105
     38 H          20.1471   74.1674    5.9999 H       1  UNL1        0.2105
     39 C          26.2798   73.9074    3.7564 C.2     1  UNL1        0.2231
     40 C          27.6114   73.2031    3.7016 C.3     1  UNL1        0.0946
     41 N          25.1432   73.2181    3.5392 N.am    1  UNL1       -0.2994
     42 O          26.2315   75.0951    3.9955 O.2     1  UNL1       -0.2751
     43 H          25.1815   72.2677    3.3476 H       1  UNL1        0.1496
     44 C          19.5937   74.2284    3.6203 C.3     1  UNL1        0.1693
     45 O          18.7814   73.5039    4.5463 O.3     1  UNL1       -0.3794
     46 H          17.8947   73.8865    4.4996 H       1  UNL1        0.2105
@<TRIPOS>BOND
     1    29    30    1
     2    29    28    1
     3    29    36    1
     4    30    31    1
     5    30    41    1
     6    31    32    1
     7    31    34    1
     8    32    33    1
     9    32    35    1
    10    33    44    1
    11    33    36    1
    12    44    45    1
    13    39    40    1
    14    39    41   am
    15    39    42    2
    16    41    43    1
    17    28    25    1
    18    34    37    1
    19    35    38    1
    20    45    46    1
    21    15    16   ar
    22    15    20   ar
    23    15     6    1
    24    16    17   ar
    25    16    21    2
    26    17    18   ar
    27    17    23    1
    28    18    19   ar
    29    18    22    2
    30    19    20   ar
    31     6     7    1
    32     6    11    1
    33     7     8    1
    34     7     9    1
    35     8    13    1
    36     9    10    1
    37     9    12    1
    38    10    11    1
    39    10     5    1
    40    12    14    1
    41     5     4    1
    42     4     1    1
    43     1     2    2
    44     1     3    1
    45     1    24    1
    46    24    25    1
    47    25    26    2
    48    25    27    1
