@<TRIPOS>MOLECULE
UD1
 46 48 0 0 0
SMALL
GASTEIGER

@<TRIPOS>ATOM
      1 P          21.7474   70.8735   -2.5043 P.3     1  UNL1        0.2189
      2 O          23.2124   70.9951   -2.6715 O.2     1  UNL1       -0.5170
      3 O          21.3170   69.3288   -2.6491 O.3     1  UNL1       -0.4371
      4 O          21.0045   71.7450   -3.6363 O.3     1  UNL1       -0.3112
      5 C          19.9636   72.4723   -2.9821 C.3     1  UNL1        0.1811
      6 C          17.9248   71.3541   -5.7244 C.3     1  UNL1        0.2383
      7 C          18.0214   70.1251   -4.7862 C.3     1  UNL1        0.1895
      8 O          16.8421   69.3241   -4.8700 O.3     1  UNL1       -0.3779
      9 C          18.1408   70.7898   -3.3901 C.3     1  UNL1        0.1713
     10 C          18.6353   72.2168   -3.6959 C.3     1  UNL1        0.1764
     11 O          18.8186   72.3123   -5.1187 O.3     1  UNL1       -0.3308
     12 O          16.8678   70.8228   -2.7411 O.3     1  UNL1       -0.3794
     13 H          16.9658   68.5793   -4.2656 H       1  UNL1        0.2106
     14 H          16.5861   69.9048   -2.6320 H       1  UNL1        0.2105
     15 N          18.3725   71.0129   -7.0752 N.ar    1  UNL1       -0.2551
     16 C          17.4701   70.6576   -8.0062 C.ar    1  UNL1        0.3323
     17 N          17.8529   70.3423   -9.2578 N.ar    1  UNL1       -0.2743
     18 C          19.1577   70.3695   -9.5964 C.ar    1  UNL1        0.2626
     19 C          20.1188   70.7360   -8.6244 C.ar    1  UNL1        0.0795
     20 C          19.7068   71.0526   -7.3780 C.ar    1  UNL1        0.0869
     21 O          16.2896   70.6284   -7.7161 O.2     1  UNL1       -0.2464
     22 O          19.5054   70.0800  -10.7263 O.2     1  UNL1       -0.2670
     23 H          17.1880   70.0929   -9.9180 H       1  UNL1        0.1734
     24 O          21.3267   71.4147   -1.0486 O.3     1  UNL1       -0.2703
     25 P          22.3288   70.7314    0.0089 P.3     1  UNL1        0.2208
     26 O          23.5588   70.2953   -0.6881 O.2     1  UNL1       -0.5170
     27 O          21.6126   69.4555    0.6809 O.3     1  UNL1       -0.4371
     28 O          22.7099   71.7960    1.1542 O.3     1  UNL1       -0.2865
     29 C          21.8955   72.9493    0.9357 C.3     1  UNL1        0.2611
     30 C          22.7690   74.0939    0.4192 C.3     1  UNL1        0.1582
     31 C          23.8645   74.3924    1.4489 C.3     1  UNL1        0.1625
     32 C          23.2041   74.6389    2.8095 C.3     1  UNL1        0.1686
     33 C          22.3000   73.4515    3.1471 C.3     1  UNL1        0.1760
     34 O          24.5936   75.5543    1.0493 O.3     1  UNL1       -0.3801
     35 O          24.2126   74.7739    3.8128 O.3     1  UNL1       -0.3794
     36 O          21.2750   73.3306    2.1616 O.3     1  UNL1       -0.3263
     37 H          25.2707   75.7048    1.7233 H       1  UNL1        0.2105
     38 H          23.7543   74.9266    4.6513 H       1  UNL1        0.2105
     39 C          23.4742   74.5981   -1.8574 C.2     1  UNL1        0.2231
     40 C          24.1062   74.1982   -3.1662 C.3     1  UNL1        0.0946
     41 N          23.3834   73.7061   -0.8522 N.am    1  UNL1       -0.2994
     42 O          23.0466   75.7230   -1.7093 O.2     1  UNL1       -0.2751
     43 H          23.7253   72.8057   -0.9706 H       1  UNL1        0.1496
     44 C          21.6606   73.6729    4.5195 C.3     1  UNL1        0.1693
     45 O          21.8961   72.5305    5.3450 O.3     1  UNL1       -0.3794
     46 H          21.4778   72.7105    6.1978 H       1  UNL1        0.2105
@<TRIPOS>BOND
     1    29    30    1
     2    29    28    1
     3    29    36    1
     4    30    31    1
     5    30    41    1
     6    31    32    1
     7    31    34    1
     8    32    33    1
     9    32    35    1
    10    33    44    1
    11    33    36    1
    12    44    45    1
    13    39    40    1
    14    39    41   am
    15    39    42    2
    16    41    43    1
    17    28    25    1
    18    34    37    1
    19    35    38    1
    20    45    46    1
    21    15    16   ar
    22    15    20   ar
    23    15     6    1
    24    16    17   ar
    25    16    21    2
    26    17    18   ar
    27    17    23    1
    28    18    19   ar
    29    18    22    2
    30    19    20   ar
    31     6     7    1
    32     6    11    1
    33     7     8    1
    34     7     9    1
    35     8    13    1
    36     9    10    1
    37     9    12    1
    38    10    11    1
    39    10     5    1
    40    12    14    1
    41     5     4    1
    42     4     1    1
    43     1     2    2
    44     1     3    1
    45     1    24    1
    46    24    25    1
    47    25    26    2
    48    25    27    1
@<TRIPOS>MOLECULE
UD1
 46 48 0 0 0
SMALL
GASTEIGER

@<TRIPOS>ATOM
      1 P          21.8917   70.7896   -0.7251 P.3     1  UNL1        0.2189
      2 O          22.5632   70.2133   -1.9107 O.2     1  UNL1       -0.5170
      3 O          21.5893   69.6215    0.3411 O.3     1  UNL1       -0.4371
      4 O          20.5063   71.4763   -1.1746 O.3     1  UNL1       -0.3112
      5 C          20.5893   71.6914   -2.5842 C.3     1  UNL1        0.1811
      6 C          18.1567   71.2437   -5.1938 C.3     1  UNL1        0.2383
      7 C          18.1149   69.9184   -4.3925 C.3     1  UNL1        0.1895
      8 O          16.8098   69.3399   -4.4294 O.3     1  UNL1       -0.3779
      9 C          18.4695   70.3931   -2.9593 C.3     1  UNL1        0.1713
     10 C          19.1803   71.7428   -3.1770 C.3     1  UNL1        0.1764
     11 O          19.2545   71.9653   -4.5956 O.3     1  UNL1       -0.3308
     12 O          17.2829   70.5650   -2.1812 O.3     1  UNL1       -0.3794
     13 H          16.8514   68.5218   -3.9151 H       1  UNL1        0.2106
     14 H          16.8538   69.7004   -2.1316 H       1  UNL1        0.2105
     15 N          18.4191   70.9862   -6.6102 N.ar    1  UNL1       -0.2551
     16 C          17.3903   70.8013   -7.4555 C.ar    1  UNL1        0.3323
     17 N          17.6019   70.5666   -8.7641 N.ar    1  UNL1       -0.2743
     18 C          18.8586   70.5039   -9.2486 C.ar    1  UNL1        0.2626
     19 C          19.9511   70.6908   -8.3687 C.ar    1  UNL1        0.0795
     20 C          19.7102   70.9300   -7.0617 C.ar    1  UNL1        0.0869
     21 O          16.2511   70.8549   -7.0336 O.2     1  UNL1       -0.2464
     22 O          19.0512   70.2871  -10.4307 O.2     1  UNL1       -0.2670
     23 H          16.8478   70.4403   -9.3604 H       1  UNL1        0.1734
     24 O          22.8461   71.8970   -0.0531 O.3     1  UNL1       -0.2703
     25 P          21.9431   72.7108    1.0012 P.3     1  UNL1        0.2208
     26 O          20.8511   71.8407    1.4903 O.2     1  UNL1       -0.5170
     27 O          21.3145   74.0071    0.2824 O.3     1  UNL1       -0.4371
     28 O          22.8547   73.1769    2.2431 O.3     1  UNL1       -0.2865
     29 C          22.5873   74.5641    2.4560 C.3     1  UNL1        0.2611
     30 C          23.7371   75.1838    3.2522 C.3     1  UNL1        0.1582
     31 C          23.8745   74.4477    4.5897 C.3     1  UNL1        0.1625
     32 C          22.5142   74.4555    5.2953 C.3     1  UNL1        0.1686
     33 C          21.4571   73.8878    4.3458 C.3     1  UNL1        0.1760
     34 O          24.8437   75.1106    5.4037 O.3     1  UNL1       -0.3801
     35 O          22.5825   73.6499    6.4735 O.3     1  UNL1       -0.3794
     36 O          21.3670   74.7058    3.1800 O.3     1  UNL1       -0.3263
     37 H          24.8981   74.6154    6.2326 H       1  UNL1        0.2105
     38 H          21.7073   73.6819    6.8852 H       1  UNL1        0.2105
     39 C          25.3435   76.0216    1.6237 C.2     1  UNL1        0.2231
     40 C          26.6256   75.8911    0.8418 C.3     1  UNL1        0.0946
     41 N          24.9827   75.0577    2.4926 N.am    1  UNL1       -0.2994
     42 O          24.6361   76.9943    1.4702 O.2     1  UNL1       -0.2751
     43 H          25.5486   74.2791    2.6155 H       1  UNL1        0.1496
     44 C          20.1003   73.8609    5.0527 C.3     1  UNL1        0.1693
     45 O          20.0891   74.8330    6.1001 O.3     1  UNL1       -0.3794
     46 H          19.2192   74.7831    6.5189 H       1  UNL1        0.2105
@<TRIPOS>BOND
     1    29    30    1
     2    29    28    1
     3    29    36    1
     4    30    31    1
     5    30    41    1
     6    31    32    1
     7    31    34    1
     8    32    33    1
     9    32    35    1
    10    33    44    1
    11    33    36    1
    12    44    45    1
    13    39    40    1
    14    39    41   am
    15    39    42    2
    16    41    43    1
    17    28    25    1
    18    34    37    1
    19    35    38    1
    20    45    46    1
    21    15    16   ar
    22    15    20   ar
    23    15     6    1
    24    16    17   ar
    25    16    21    2
    26    17    18   ar
    27    17    23    1
    28    18    19   ar
    29    18    22    2
    30    19    20   ar
    31     6     7    1
    32     6    11    1
    33     7     8    1
    34     7     9    1
    35     8    13    1
    36     9    10    1
    37     9    12    1
    38    10    11    1
    39    10     5    1
    40    12    14    1
    41     5     4    1
    42     4     1    1
    43     1     2    2
    44     1     3    1
    45     1    24    1
    46    24    25    1
    47    25    26    2
    48    25    27    1
@<TRIPOS>MOLECULE
UD1
 46 48 0 0 0
SMALL
GASTEIGER

@<TRIPOS>ATOM
      1 P          22.4744   71.0256   -2.7071 P.3     1  UNL1        0.2189
      2 O          21.6112   69.9727   -2.1282 O.2     1  UNL1       -0.5170
      3 O          23.8312   70.3611   -3.2640 O.3     1  UNL1       -0.4371
      4 O          22.8352   72.1078   -1.5706 O.3     1  UNL1       -0.3112
      5 C          22.3331   71.5944   -0.3359 C.3     1  UNL1        0.1811
      6 C          20.7733   73.6891    2.1353 C.3     1  UNL1        0.2383
      7 C          21.6202   74.6636    1.2790 C.3     1  UNL1        0.1895
      8 O          21.0175   75.9573    1.2304 O.3     1  UNL1       -0.3779
      9 C          21.5873   73.9850   -0.1151 C.3     1  UNL1        0.1713
     10 C          21.2330   72.5170    0.1914 C.3     1  UNL1        0.1764
     11 O          21.1305   72.3890    1.6198 O.3     1  UNL1       -0.3308
     12 O          20.5871   74.5860   -0.9405 O.3     1  UNL1       -0.3794
     13 H          21.5913   76.5134    0.6854 H       1  UNL1        0.2106
     14 H          20.8330   75.5147   -1.0459 H       1  UNL1        0.2105
     15 N          21.1282   73.7985    3.5507 N.ar    1  UNL1       -0.2551
     16 C          20.1582   73.9225    4.4732 C.ar    1  UNL1        0.3323
     17 N          20.4554   74.0210    5.7825 N.ar    1  UNL1       -0.2743
     18 C          21.7403   74.0061    6.1907 C.ar    1  UNL1        0.2626
     19 C          22.7717   73.8822    5.2295 C.ar    1  UNL1        0.0795
     20 C          22.4453   73.7796    3.9233 C.ar    1  UNL1        0.0869
     21 O          18.9945   73.9374    4.1208 O.2     1  UNL1       -0.2464
     22 O          22.0103   74.1000    7.3737 O.2     1  UNL1       -0.2670
     23 H          19.7428   74.1050    6.4347 H       1  UNL1        0.1734
     24 O          21.6976   71.7534   -3.9136 O.3     1  UNL1       -0.2703
     25 P          22.5988   73.0112   -4.3550 P.3     1  UNL1        0.2208
     26 O          23.9752   72.8362   -3.8415 O.2     1  UNL1       -0.5170
     27 O          21.9685   74.3630   -3.7487 O.3     1  UNL1       -0.4371
     28 O          22.6339   73.1106   -5.9610 O.3     1  UNL1       -0.2865
     29 C          21.5656   73.9775   -6.3461 C.3     1  UNL1        0.2611
     30 C          20.6330   73.2348   -7.3047 C.3     1  UNL1        0.1582
     31 C          21.4323   72.7829   -8.5320 C.3     1  UNL1        0.1625
     32 C          22.1449   74.0012   -9.1287 C.3     1  UNL1        0.1686
     33 C          22.9659   74.6844   -8.0331 C.3     1  UNL1        0.1760
     34 O          20.5452   72.2208   -9.5008 O.3     1  UNL1       -0.3801
     35 O          23.0109   73.5790  -10.1839 O.3     1  UNL1       -0.3794
     36 O          22.1006   75.1317   -6.9902 O.3     1  UNL1       -0.3263
     37 H          21.0887   71.9504  -10.2537 H       1  UNL1        0.2105
     38 H          23.4389   74.3750  -10.5299 H       1  UNL1        0.2105
     39 C          18.7397   71.9854   -6.4166 C.2     1  UNL1        0.2231
     40 C          18.1579   70.7811   -5.7213 C.3     1  UNL1        0.0946
     41 N          20.0673   72.0649   -6.6296 N.am    1  UNL1       -0.2994
     42 O          18.0126   72.8835   -6.7839 O.2     1  UNL1       -0.2751
     43 H          20.6494   71.3464   -6.3356 H       1  UNL1        0.1496
     44 C          23.7076   75.8840   -8.6263 C.3     1  UNL1        0.1693
     45 O          25.0448   75.9141   -8.1234 O.3     1  UNL1       -0.3794
     46 H          25.4759   76.6829   -8.5205 H       1  UNL1        0.2105
@<TRIPOS>BOND
     1    29    30    1
     2    29    28    1
     3    29    36    1
     4    30    31    1
     5    30    41    1
     6    31    32    1
     7    31    34    1
     8    32    33    1
     9    32    35    1
    10    33    44    1
    11    33    36    1
    12    44    45    1
    13    39    40    1
    14    39    41   am
    15    39    42    2
    16    41    43    1
    17    28    25    1
    18    34    37    1
    19    35    38    1
    20    45    46    1
    21    15    16   ar
    22    15    20   ar
    23    15     6    1
    24    16    17   ar
    25    16    21    2
    26    17    18   ar
    27    17    23    1
    28    18    19   ar
    29    18    22    2
    30    19    20   ar
    31     6     7    1
    32     6    11    1
    33     7     8    1
    34     7     9    1
    35     8    13    1
    36     9    10    1
    37     9    12    1
    38    10    11    1
    39    10     5    1
    40    12    14    1
    41     5     4    1
    42     4     1    1
    43     1     2    2
    44     1     3    1
    45     1    24    1
    46    24    25    1
    47    25    26    2
    48    25    27    1
@<TRIPOS>MOLECULE
UD1
 46 48 0 0 0
SMALL
GASTEIGER

@<TRIPOS>ATOM
      1 P          22.5549   72.9796   -3.1813 P.3     1  UNL1        0.2189
      2 O          22.9208   72.7101   -1.7734 O.2     1  UNL1       -0.5170
      3 O          21.6816   74.3300   -3.2599 O.3     1  UNL1       -0.4371
      4 O          21.6904   71.7485   -3.7556 O.3     1  UNL1       -0.3112
      5 C          20.7387   71.4050   -2.7472 C.3     1  UNL1        0.1811
      6 C          18.2435   71.1234   -5.3204 C.3     1  UNL1        0.2383
      7 C          18.1504   69.7874   -4.5416 C.3     1  UNL1        0.1895
      8 O          16.8181   69.2738   -4.5652 O.3     1  UNL1       -0.3779
      9 C          18.5520   70.2182   -3.1069 C.3     1  UNL1        0.1713
     10 C          19.3242   71.5355   -3.3139 C.3     1  UNL1        0.1764
     11 O          19.3852   71.7799   -4.7295 O.3     1  UNL1       -0.3308
     12 O          17.3886   70.4335   -2.3050 O.3     1  UNL1       -0.3794
     13 H          16.8284   68.4454   -4.0660 H       1  UNL1        0.2106
     14 H          16.9186   69.5900   -2.2627 H       1  UNL1        0.2105
     15 N          18.4690   70.8792   -6.7455 N.ar    1  UNL1       -0.2551
     16 C          17.4180   70.7248   -7.5695 C.ar    1  UNL1        0.3323
     17 N          17.5956   70.5030   -8.8854 N.ar    1  UNL1       -0.2743
     18 C          18.8396   70.4226   -9.3991 C.ar    1  UNL1        0.2626
     19 C          19.9550   70.5772   -8.5419 C.ar    1  UNL1        0.0795
     20 C          19.7482   70.8041   -7.2269 C.ar    1  UNL1        0.0869
     21 O          16.2898   70.7948   -7.1213 O.2     1  UNL1       -0.2464
     22 O          19.0014   70.2173  -10.5878 O.2     1  UNL1       -0.2670
     23 H          16.8260   70.3988   -9.4660 H       1  UNL1        0.1734
     24 O          23.8918   73.1521   -4.0598 O.3     1  UNL1       -0.2703
     25 P          24.5763   74.5334   -3.5983 P.3     1  UNL1        0.2208
     26 O          24.3447   74.7393   -2.1517 O.2     1  UNL1       -0.5170
     27 O          23.9301   75.7554   -4.4237 O.3     1  UNL1       -0.4371
     28 O          26.1588   74.4716   -3.8849 O.3     1  UNL1       -0.2865
     29 C          26.6330   75.8193   -3.8848 C.3     1  UNL1        0.2611
     30 C          27.6283   76.0046   -5.0316 C.3     1  UNL1        0.1582
     31 C          28.7907   75.0220   -4.8502 C.3     1  UNL1        0.1625
     32 C          29.3734   75.2061   -3.4450 C.3     1  UNL1        0.1686
     33 C          28.2468   75.0779   -2.4175 C.3     1  UNL1        0.1760
     34 O          29.7981   75.2862   -5.8283 O.3     1  UNL1       -0.3801
     35 O          30.3605   74.2022   -3.2016 O.3     1  UNL1       -0.3794
     36 O          27.2725   76.0965   -2.6408 O.3     1  UNL1       -0.3263
     37 H          30.5079   74.6468   -5.6781 H       1  UNL1        0.2105
     38 H          30.6999   74.3543   -2.3082 H       1  UNL1        0.2105
     39 C          26.4856   76.7673   -7.0433 C.2     1  UNL1        0.2231
     40 C          25.7967   76.4975   -8.3567 C.3     1  UNL1        0.0946
     41 N          26.9595   75.7432   -6.3078 N.am    1  UNL1       -0.2994
     42 O          26.6128   77.9065   -6.6481 O.2     1  UNL1       -0.2751
     43 H          26.8576   74.8314   -6.6237 H       1  UNL1        0.1496
     44 C          28.8238   75.2280   -1.0084 C.3     1  UNL1        0.1693
     45 O          30.1883   74.8036   -1.0043 O.3     1  UNL1       -0.3794
     46 H          30.5129   74.9137   -0.1004 H       1  UNL1        0.2105
@<TRIPOS>BOND
     1    29    30    1
     2    29    28    1
     3    29    36    1
     4    30    31    1
     5    30    41    1
     6    31    32    1
     7    31    34    1
     8    32    33    1
     9    32    35    1
    10    33    44    1
    11    33    36    1
    12    44    45    1
    13    39    40    1
    14    39    41   am
    15    39    42    2
    16    41    43    1
    17    28    25    1
    18    34    37    1
    19    35    38    1
    20    45    46    1
    21    15    16   ar
    22    15    20   ar
    23    15     6    1
    24    16    17   ar
    25    16    21    2
    26    17    18   ar
    27    17    23    1
    28    18    19   ar
    29    18    22    2
    30    19    20   ar
    31     6     7    1
    32     6    11    1
    33     7     8    1
    34     7     9    1
    35     8    13    1
    36     9    10    1
    37     9    12    1
    38    10    11    1
    39    10     5    1
    40    12    14    1
    41     5     4    1
    42     4     1    1
    43     1     2    2
    44     1     3    1
    45     1    24    1
    46    24    25    1
    47    25    26    2
    48    25    27    1
@<TRIPOS>MOLECULE
UD1
 46 48 0 0 0
SMALL
GASTEIGER

@<TRIPOS>ATOM
      1 P          22.9720   72.2378   -3.1800 P.3     1  UNL1        0.2189
      2 O          23.4526   70.8398   -3.2366 O.2     1  UNL1       -0.5170
      3 O          23.7648   73.1224   -4.2670 O.3     1  UNL1       -0.4371
      4 O          23.2348   72.8359   -1.7083 O.3     1  UNL1       -0.3112
      5 C          22.1921   73.7781   -1.4522 C.3     1  UNL1        0.1811
      6 C          22.3837   74.0721    2.1261 C.3     1  UNL1        0.2383
      7 C          21.6146   75.3385    1.6732 C.3     1  UNL1        0.1895
      8 O          20.6876   75.7591    2.6747 O.3     1  UNL1       -0.3779
      9 C          20.8720   74.8336    0.4088 C.3     1  UNL1        0.1713
     10 C          21.6738   73.5915   -0.0254 C.3     1  UNL1        0.1764
     11 O          22.7801   73.4552    0.8828 O.3     1  UNL1       -0.3308
     12 O          19.5242   74.4808    0.7276 O.3     1  UNL1       -0.3794
     13 H          20.2443   76.5477    2.3327 H       1  UNL1        0.2106
     14 H          19.0935   75.2844    1.0483 H       1  UNL1        0.2105
     15 N          23.5583   74.4341    2.9203 N.ar    1  UNL1       -0.2551
     16 C          24.5222   75.1962    2.3750 C.ar    1  UNL1        0.3323
     17 N          25.6117   75.5477    3.0834 N.ar    1  UNL1       -0.2743
     18 C          25.7580   75.1300    4.3569 C.ar    1  UNL1        0.2626
     19 C          24.7537   74.3221    4.9414 C.ar    1  UNL1        0.0795
     20 C          23.6687   73.9888    4.2100 C.ar    1  UNL1        0.0869
     21 O          24.4046   75.5809    1.2275 O.2     1  UNL1       -0.2464
     22 O          26.7449   75.4432    4.9967 O.2     1  UNL1       -0.2670
     23 H          26.2949   76.1020    2.6757 H       1  UNL1        0.1734
     24 O          21.3959   72.2769   -3.5014 O.3     1  UNL1       -0.2703
     25 P          21.2451   72.7521   -5.0314 P.3     1  UNL1        0.2208
     26 O          22.5141   72.5067   -5.7513 O.2     1  UNL1       -0.5170
     27 O          20.8999   74.3241   -5.0744 O.3     1  UNL1       -0.4371
     28 O          20.0590   71.9242   -5.7373 O.3     1  UNL1       -0.2865
     29 C          19.1079   72.8814   -6.2068 C.3     1  UNL1        0.2611
     30 C          17.6974   72.3107   -6.0498 C.3     1  UNL1        0.1582
     31 C          17.5924   71.0068   -6.8488 C.3     1  UNL1        0.1625
     32 C          18.0283   71.2800   -8.2922 C.3     1  UNL1        0.1686
     33 C          19.4155   71.9257   -8.2802 C.3     1  UNL1        0.1760
     34 O          16.2412   70.5428   -6.8328 O.3     1  UNL1       -0.3801
     35 O          18.0786   70.0498   -9.0173 O.3     1  UNL1       -0.3794
     36 O          19.3628   73.1682   -7.5802 O.3     1  UNL1       -0.3263
     37 H          16.2212   69.7230   -7.3454 H       1  UNL1        0.2105
     38 H          18.3573   70.2672   -9.9181 H       1  UNL1        0.2105
     39 C          16.2025   72.2512   -4.1273 C.2     1  UNL1        0.2231
     40 C          15.9304   71.9746   -2.6707 C.3     1  UNL1        0.0946
     41 N          17.4324   72.0417   -4.6350 N.am    1  UNL1       -0.2994
     42 O          15.3142   72.6630   -4.8425 O.2     1  UNL1       -0.2751
     43 H          18.1435   71.7124   -4.0628 H       1  UNL1        0.1496
     44 C          19.8740   72.1731   -9.7188 C.3     1  UNL1        0.1693
     45 O          21.2709   72.4743   -9.7288 O.3     1  UNL1       -0.3794
     46 H          21.5184   72.6233  -10.6514 H       1  UNL1        0.2105
@<TRIPOS>BOND
     1    29    30    1
     2    29    28    1
     3    29    36    1
     4    30    31    1
     5    30    41    1
     6    31    32    1
     7    31    34    1
     8    32    33    1
     9    32    35    1
    10    33    44    1
    11    33    36    1
    12    44    45    1
    13    39    40    1
    14    39    41   am
    15    39    42    2
    16    41    43    1
    17    28    25    1
    18    34    37    1
    19    35    38    1
    20    45    46    1
    21    15    16   ar
    22    15    20   ar
    23    15     6    1
    24    16    17   ar
    25    16    21    2
    26    17    18   ar
    27    17    23    1
    28    18    19   ar
    29    18    22    2
    30    19    20   ar
    31     6     7    1
    32     6    11    1
    33     7     8    1
    34     7     9    1
    35     8    13    1
    36     9    10    1
    37     9    12    1
    38    10    11    1
    39    10     5    1
    40    12    14    1
    41     5     4    1
    42     4     1    1
    43     1     2    2
    44     1     3    1
    45     1    24    1
    46    24    25    1
    47    25    26    2
    48    25    27    1
@<TRIPOS>MOLECULE
UD1
 46 48 0 0 0
SMALL
GASTEIGER

@<TRIPOS>ATOM
      1 P          22.7577   71.9072   -3.3517 P.3     1  UNL1        0.2189
      2 O          23.3890   70.5932   -3.0997 O.2     1  UNL1       -0.5170
      3 O          23.8177   72.8829   -4.0707 O.3     1  UNL1       -0.4371
      4 O          22.2950   72.5568   -1.9528 O.3     1  UNL1       -0.3112
      5 C          23.3124   73.4836   -1.5703 C.3     1  UNL1        0.1811
      6 C          22.3545   75.3217    1.3676 C.3     1  UNL1        0.2383
      7 C          23.7398   75.8990    0.9830 C.3     1  UNL1        0.1895
      8 O          23.8431   77.2729    1.3586 O.3     1  UNL1       -0.3779
      9 C          23.7393   75.7458   -0.5603 C.3     1  UNL1        0.1713
     10 C          22.6781   74.6612   -0.8285 C.3     1  UNL1        0.1764
     11 O          22.1789   74.2239    0.4469 O.3     1  UNL1       -0.3308
     12 O          23.3736   76.9780   -1.1853 O.3     1  UNL1       -0.3794
     13 H          24.7244   77.5704    1.0932 H       1  UNL1        0.2106
     14 H          24.0417   77.6288   -0.9317 H       1  UNL1        0.2105
     15 N          22.3578   74.8408    2.7497 N.ar    1  UNL1       -0.2551
     16 C          21.2242   74.8795    3.4713 C.ar    1  UNL1        0.3323
     17 N          21.1971   74.4402    4.7436 N.ar    1  UNL1       -0.2743
     18 C          22.3170   73.9597    5.3205 C.ar    1  UNL1        0.2626
     19 C          23.5187   73.9187    4.5741 C.ar    1  UNL1        0.0795
     20 C          23.5165   74.3608    3.2983 C.ar    1  UNL1        0.0869
     21 O          20.2060   75.3101    2.9649 O.2     1  UNL1       -0.2464
     22 O          22.2947   73.5666    6.4722 O.2     1  UNL1       -0.2670
     23 H          20.3695   74.4711    5.2478 H       1  UNL1        0.1734
     24 O          21.4748   71.7126   -4.3031 O.3     1  UNL1       -0.2703
     25 P          21.4875   72.9299   -5.3554 P.3     1  UNL1        0.2208
     26 O          22.7144   72.8570   -6.1790 O.2     1  UNL1       -0.5170
     27 O          21.4590   74.3289   -4.5591 O.3     1  UNL1       -0.4371
     28 O          20.1946   72.8303   -6.3088 O.3     1  UNL1       -0.2865
     29 C          20.1913   71.5150   -6.8667 C.3     1  UNL1        0.2611
     30 C          20.1553   71.6139   -8.3928 C.3     1  UNL1        0.1582
     31 C          18.8994   72.3842   -8.8157 C.3     1  UNL1        0.1625
     32 C          17.6769   71.7171   -8.1766 C.3     1  UNL1        0.1686
     33 C          17.8986   71.6132   -6.6661 C.3     1  UNL1        0.1760
     34 O          18.7759   72.3544  -10.2389 O.3     1  UNL1       -0.3801
     35 O          16.5126   72.5033   -8.4372 O.3     1  UNL1       -0.3794
     36 O          19.0451   70.8057   -6.4015 O.3     1  UNL1       -0.3263
     37 H          17.9752   72.8495  -10.4603 H       1  UNL1        0.2105
     38 H          15.7684   72.0488   -8.0175 H       1  UNL1        0.2105
     39 C          21.3141   73.6560   -9.0420 C.2     1  UNL1        0.2231
     40 C          22.5410   74.3833   -9.5298 C.3     1  UNL1        0.0946
     41 N          21.3471   72.3210   -8.8662 N.am    1  UNL1       -0.2994
     42 O          20.2966   74.2726   -8.8084 O.2     1  UNL1       -0.2751
     43 H          22.1612   71.8272   -9.0533 H       1  UNL1        0.1496
     44 C          16.6690   70.9776   -6.0139 C.3     1  UNL1        0.1693
     45 O          15.8292   72.0029   -5.4796 O.3     1  UNL1       -0.3794
     46 H          15.0686   71.5609   -5.0787 H       1  UNL1        0.2105
@<TRIPOS>BOND
     1    29    30    1
     2    29    28    1
     3    29    36    1
     4    30    31    1
     5    30    41    1
     6    31    32    1
     7    31    34    1
     8    32    33    1
     9    32    35    1
    10    33    44    1
    11    33    36    1
    12    44    45    1
    13    39    40    1
    14    39    41   am
    15    39    42    2
    16    41    43    1
    17    28    25    1
    18    34    37    1
    19    35    38    1
    20    45    46    1
    21    15    16   ar
    22    15    20   ar
    23    15     6    1
    24    16    17   ar
    25    16    21    2
    26    17    18   ar
    27    17    23    1
    28    18    19   ar
    29    18    22    2
    30    19    20   ar
    31     6     7    1
    32     6    11    1
    33     7     8    1
    34     7     9    1
    35     8    13    1
    36     9    10    1
    37     9    12    1
    38    10    11    1
    39    10     5    1
    40    12    14    1
    41     5     4    1
    42     4     1    1
    43     1     2    2
    44     1     3    1
    45     1    24    1
    46    24    25    1
    47    25    26    2
    48    25    27    1
@<TRIPOS>MOLECULE
UD1
 46 48 0 0 0
SMALL
GASTEIGER

@<TRIPOS>ATOM
      1 P          22.8598   71.8404   -3.3092 P.3     1  UNL1        0.2189
      2 O          23.4752   70.4965   -3.2448 O.2     1  UNL1       -0.5170
      3 O          23.8709   72.8593   -4.0386 O.3     1  UNL1       -0.4371
      4 O          22.5566   72.3632   -1.8167 O.3     1  UNL1       -0.3112
      5 C          21.6719   71.4151   -1.2177 C.3     1  UNL1        0.1811
      6 C          21.1868   73.3589    1.7678 C.3     1  UNL1        0.2383
      7 C          21.1606   74.3984    0.6194 C.3     1  UNL1        0.1895
      8 O          20.3133   75.5003    0.9465 O.3     1  UNL1       -0.3779
      9 C          20.5681   73.5737   -0.5528 C.3     1  UNL1        0.1713
     10 C          20.8267   72.1094   -0.1486 C.3     1  UNL1        0.1764
     11 O          21.5377   72.1278    1.1009 O.3     1  UNL1       -0.3308
     12 O          19.1668   73.8237   -0.6823 O.3     1  UNL1       -0.3794
     13 H          20.3412   76.1081    0.1947 H       1  UNL1        0.2106
     14 H          19.0679   74.7654   -0.8756 H       1  UNL1        0.2105
     15 N          22.1979   73.7121    2.7651 N.ar    1  UNL1       -0.2551
     16 C          23.3759   74.2234    2.3673 C.ar    1  UNL1        0.3323
     17 N          24.3228   74.5609    3.2628 N.ar    1  UNL1       -0.2743
     18 C          24.1059   74.3813    4.5813 C.ar    1  UNL1        0.2626
     19 C          22.8724   73.8383    5.0135 C.ar    1  UNL1        0.0795
     20 C          21.9381   73.5135    4.0943 C.ar    1  UNL1        0.0869
     21 O          23.5864   74.3914    1.1816 O.2     1  UNL1       -0.2464
     22 O          24.9631   74.6816    5.3915 O.2     1  UNL1       -0.2670
     23 H          25.1649   74.9329    2.9584 H       1  UNL1        0.1734
     24 O          21.4840   71.7614   -4.1397 O.3     1  UNL1       -0.2703
     25 P          21.5136   72.9679   -5.2040 P.3     1  UNL1        0.2208
     26 O          22.7752   72.9146   -5.9750 O.2     1  UNL1       -0.5170
     27 O          21.4205   74.3739   -4.4252 O.3     1  UNL1       -0.4371
     28 O          20.2643   72.8292   -6.2093 O.3     1  UNL1       -0.2865
     29 C          20.2930   71.4971   -6.7248 C.3     1  UNL1        0.2611
     30 C          20.2708   71.5467   -8.2536 C.3     1  UNL1        0.1582
     31 C          19.0042   72.2775   -8.7130 C.3     1  UNL1        0.1625
     32 C          17.7887   71.6065   -8.0647 C.3     1  UNL1        0.1686
     33 C          17.9969   71.5552   -6.5497 C.3     1  UNL1        0.1760
     34 O          18.8961   72.2000  -10.1356 O.3     1  UNL1       -0.3801
     35 O          16.6117   72.3603   -8.3616 O.3     1  UNL1       -0.3794
     36 O          19.1564   70.7799   -6.2483 O.3     1  UNL1       -0.3263
     37 H          18.0880   72.6715  -10.3805 H       1  UNL1        0.2105
     38 H          15.8725   71.9043   -7.9348 H       1  UNL1        0.2105
     39 C          21.3822   73.5813   -9.0014 C.2     1  UNL1        0.2231
     40 C          22.5994   74.3175   -9.5003 C.3     1  UNL1        0.0946
     41 N          21.4531   72.2623   -8.7378 N.am    1  UNL1       -0.2994
     42 O          20.3385   74.1764   -8.8380 O.2     1  UNL1       -0.2751
     43 H          22.2882   71.7859   -8.8687 H       1  UNL1        0.1496
     44 C          16.7736   70.9159   -5.8894 C.3     1  UNL1        0.1693
     45 O          16.2125   69.9397   -6.7694 O.3     1  UNL1       -0.3794
     46 H          15.4462   69.5623   -6.3166 H       1  UNL1        0.2105
@<TRIPOS>BOND
     1    29    30    1
     2    29    28    1
     3    29    36    1
     4    30    31    1
     5    30    41    1
     6    31    32    1
     7    31    34    1
     8    32    33    1
     9    32    35    1
    10    33    44    1
    11    33    36    1
    12    44    45    1
    13    39    40    1
    14    39    41   am
    15    39    42    2
    16    41    43    1
    17    28    25    1
    18    34    37    1
    19    35    38    1
    20    45    46    1
    21    15    16   ar
    22    15    20   ar
    23    15     6    1
    24    16    17   ar
    25    16    21    2
    26    17    18   ar
    27    17    23    1
    28    18    19   ar
    29    18    22    2
    30    19    20   ar
    31     6     7    1
    32     6    11    1
    33     7     8    1
    34     7     9    1
    35     8    13    1
    36     9    10    1
    37     9    12    1
    38    10    11    1
    39    10     5    1
    40    12    14    1
    41     5     4    1
    42     4     1    1
    43     1     2    2
    44     1     3    1
    45     1    24    1
    46    24    25    1
    47    25    26    2
    48    25    27    1
@<TRIPOS>MOLECULE
UD1
 46 48 0 0 0
SMALL
GASTEIGER

@<TRIPOS>ATOM
      1 P          20.2387   70.2643   -2.5827 P.3     1  UNL1        0.2189
      2 O          21.4822   69.5638   -2.9725 O.2     1  UNL1       -0.5170
      3 O          19.1331   69.1841   -2.1317 O.3     1  UNL1       -0.4371
      4 O          19.6831   71.1079   -3.8367 O.3     1  UNL1       -0.3112
      5 C          18.3107   70.7481   -4.0021 C.3     1  UNL1        0.1811
      6 C          18.5288   72.5148   -7.1259 C.3     1  UNL1        0.2383
      7 C          18.3270   71.0332   -7.5312 C.3     1  UNL1        0.1895
      8 O          17.6187   70.9332   -8.7671 O.3     1  UNL1       -0.3779
      9 C          17.4720   70.4882   -6.3577 C.3     1  UNL1        0.1713
     10 C          17.7316   71.4844   -5.2111 C.3     1  UNL1        0.1764
     11 O          18.6772   72.4552   -5.6913 O.3     1  UNL1       -0.3308
     12 O          16.0875   70.4732   -6.7122 O.3     1  UNL1       -0.3794
     13 H          17.5270   69.9903   -8.9620 H       1  UNL1        0.2106
     14 H          15.9997   69.8801   -7.4703 H       1  UNL1        0.2105
     15 N          19.7348   73.0636   -7.7472 N.ar    1  UNL1       -0.2551
     16 C          20.6795   72.2311   -8.2181 C.ar    1  UNL1        0.3323
     17 N          21.7970   72.7078   -8.7979 N.ar    1  UNL1       -0.2743
     18 C          21.9913   74.0376   -8.9075 C.ar    1  UNL1        0.2626
     19 C          21.0076   74.9254   -8.4106 C.ar    1  UNL1        0.0795
     20 C          19.8937   74.4201   -7.8385 C.ar    1  UNL1        0.0869
     21 O          20.5186   71.0293   -8.1266 O.2     1  UNL1       -0.2464
     22 O          23.0035   74.4698   -9.4272 O.2     1  UNL1       -0.2670
     23 H          22.4658   72.0928   -9.1363 H       1  UNL1        0.1734
     24 O          20.5460   71.2623   -1.3586 O.3     1  UNL1       -0.2703
     25 P          21.8809   70.7210   -0.6414 P.3     1  UNL1        0.2208
     26 O          22.9334   70.5032   -1.6581 O.2     1  UNL1       -0.5170
     27 O          21.5631   69.3314    0.1071 O.3     1  UNL1       -0.4371
     28 O          22.3903   71.8041    0.4347 O.3     1  UNL1       -0.2865
     29 C          21.2447   72.5545    0.8417 C.3     1  UNL1        0.2611
     30 C          21.4781   74.0359    0.5399 C.3     1  UNL1        0.1582
     31 C          22.7289   74.5090    1.2890 C.3     1  UNL1        0.1625
     32 C          22.5716   74.1629    2.7734 C.3     1  UNL1        0.1686
     33 C          22.2587   72.6710    2.9068 C.3     1  UNL1        0.1760
     34 O          22.8727   75.9223    1.1360 O.3     1  UNL1       -0.3801
     35 O          23.7856   74.4618    3.4651 O.3     1  UNL1       -0.3794
     36 O          21.0324   72.3741    2.2402 O.3     1  UNL1       -0.3263
     37 H          23.6698   76.1762    1.6213 H       1  UNL1        0.2105
     38 H          23.6432   74.2287    4.3935 H       1  UNL1        0.2105
     39 C          22.9138   74.2388   -1.4175 C.2     1  UNL1        0.2231
     40 C          23.1113   74.4270   -2.9000 C.3     1  UNL1        0.0946
     41 N          21.6704   74.2181   -0.9003 N.am    1  UNL1       -0.2994
     42 O          23.8747   74.1067   -0.6899 O.2     1  UNL1       -0.2751
     43 H          20.9012   74.3241   -1.4823 H       1  UNL1        0.1496
     44 C          22.1318   72.3083    4.3878 C.3     1  UNL1        0.1693
     45 O          21.6659   73.4445    5.1187 O.3     1  UNL1       -0.3794
     46 H          21.6002   73.1739    6.0445 H       1  UNL1        0.2105
@<TRIPOS>BOND
     1    29    30    1
     2    29    28    1
     3    29    36    1
     4    30    31    1
     5    30    41    1
     6    31    32    1
     7    31    34    1
     8    32    33    1
     9    32    35    1
    10    33    44    1
    11    33    36    1
    12    44    45    1
    13    39    40    1
    14    39    41   am
    15    39    42    2
    16    41    43    1
    17    28    25    1
    18    34    37    1
    19    35    38    1
    20    45    46    1
    21    15    16   ar
    22    15    20   ar
    23    15     6    1
    24    16    17   ar
    25    16    21    2
    26    17    18   ar
    27    17    23    1
    28    18    19   ar
    29    18    22    2
    30    19    20   ar
    31     6     7    1
    32     6    11    1
    33     7     8    1
    34     7     9    1
    35     8    13    1
    36     9    10    1
    37     9    12    1
    38    10    11    1
    39    10     5    1
    40    12    14    1
    41     5     4    1
    42     4     1    1
    43     1     2    2
    44     1     3    1
    45     1    24    1
    46    24    25    1
    47    25    26    2
    48    25    27    1
@<TRIPOS>MOLECULE
UD1
 46 48 0 0 0
SMALL
GASTEIGER

@<TRIPOS>ATOM
      1 P          22.1973   73.9962   -6.8475 P.3     1  UNL1        0.2189
      2 O          21.5740   75.0322   -5.9949 O.2     1  UNL1       -0.5170
      3 O          22.9304   72.9054   -5.9174 O.3     1  UNL1       -0.4371
      4 O          23.2795   74.6835   -7.8218 O.3     1  UNL1       -0.3112
      5 C          23.0683   74.1384   -9.1251 C.3     1  UNL1        0.1811
      6 C          24.7743   74.7997  -12.2201 C.3     1  UNL1        0.2383
      7 C          24.5312   76.2002  -11.6039 C.3     1  UNL1        0.1895
      8 O          25.5651   77.1106  -11.9799 O.3     1  UNL1       -0.3779
      9 C          24.5838   75.9005  -10.0832 C.3     1  UNL1        0.1713
     10 C          24.3048   74.3879   -9.9899 C.3     1  UNL1        0.1764
     11 O          24.0714   73.9109  -11.3260 O.3     1  UNL1       -0.3308
     12 O          25.8756   76.2110   -9.5564 O.3     1  UNL1       -0.3794
     13 H          25.3552   77.9594  -11.5663 H       1  UNL1        0.2106
     14 H          26.0150   77.1569   -9.6980 H       1  UNL1        0.2105
     15 N          24.2152   74.7221  -13.5702 N.ar    1  UNL1       -0.2551
     16 C          24.3185   73.5785  -14.2694 C.ar    1  UNL1        0.3323
     17 N          23.8100   73.4773  -15.5117 N.ar    1  UNL1       -0.2743
     18 C          23.1929   74.5321  -16.0814 C.ar    1  UNL1        0.2626
     19 C          23.0824   75.7439  -15.3588 C.ar    1  UNL1        0.0795
     20 C          23.5966   75.8163  -14.1123 C.ar    1  UNL1        0.0869
     21 O          24.8722   72.6184  -13.7692 O.2     1  UNL1       -0.2464
     22 O          22.7370   74.4432  -17.2064 O.2     1  UNL1       -0.2670
     23 H          23.8893   72.6432  -15.9998 H       1  UNL1        0.1734
     24 O          21.0627   73.2740   -7.7307 O.3     1  UNL1       -0.2703
     25 P          19.7690   74.2304   -7.6977 P.3     1  UNL1        0.2208
     26 O          19.0910   74.1883   -9.0120 O.2     1  UNL1       -0.5170
     27 O          20.2255   75.7410   -7.3783 O.3     1  UNL1       -0.4371
     28 O          18.7552   73.7246   -6.5545 O.3     1  UNL1       -0.2865
     29 C          19.2371   72.4572   -6.1044 C.3     1  UNL1        0.2611
     30 C          18.3489   71.3486   -6.6720 C.3     1  UNL1        0.1582
     31 C          16.9059   71.5751   -6.2072 C.3     1  UNL1        0.1625
     32 C          16.8969   71.7000   -4.6799 C.3     1  UNL1        0.1686
     33 C          17.8926   72.7844   -4.2628 C.3     1  UNL1        0.1760
     34 O          16.0953   70.4678   -6.6051 O.3     1  UNL1       -0.3801
     35 O          15.5860   72.0570   -4.2374 O.3     1  UNL1       -0.3794
     36 O          19.2073   72.4177   -4.6793 O.3     1  UNL1       -0.3263
     37 H          15.1984   70.6519   -6.2934 H       1  UNL1        0.2105
     38 H          15.6255   72.1257   -3.2729 H       1  UNL1        0.2105
     39 C          19.3150   70.6350   -8.7914 C.2     1  UNL1        0.2231
     40 C          19.3710   70.6662  -10.2974 C.3     1  UNL1        0.0946
     41 N          18.4033   71.3781   -8.1351 N.am    1  UNL1       -0.2994
     42 O          20.0915   69.9413   -8.1701 O.2     1  UNL1       -0.2751
     43 H          17.7819   71.9336   -8.6321 H       1  UNL1        0.1496
     44 C          17.8675   72.9398   -2.7408 C.3     1  UNL1        0.1693
     45 O          17.7551   71.6518   -2.1319 O.3     1  UNL1       -0.3794
     46 H          17.7425   71.7945   -1.1758 H       1  UNL1        0.2105
@<TRIPOS>BOND
     1    29    30    1
     2    29    28    1
     3    29    36    1
     4    30    31    1
     5    30    41    1
     6    31    32    1
     7    31    34    1
     8    32    33    1
     9    32    35    1
    10    33    44    1
    11    33    36    1
    12    44    45    1
    13    39    40    1
    14    39    41   am
    15    39    42    2
    16    41    43    1
    17    28    25    1
    18    34    37    1
    19    35    38    1
    20    45    46    1
    21    15    16   ar
    22    15    20   ar
    23    15     6    1
    24    16    17   ar
    25    16    21    2
    26    17    18   ar
    27    17    23    1
    28    18    19   ar
    29    18    22    2
    30    19    20   ar
    31     6     7    1
    32     6    11    1
    33     7     8    1
    34     7     9    1
    35     8    13    1
    36     9    10    1
    37     9    12    1
    38    10    11    1
    39    10     5    1
    40    12    14    1
    41     5     4    1
    42     4     1    1
    43     1     2    2
    44     1     3    1
    45     1    24    1
    46    24    25    1
    47    25    26    2
    48    25    27    1
@<TRIPOS>MOLECULE
UD1
 46 48 0 0 0
SMALL
GASTEIGER

@<TRIPOS>ATOM
      1 P          22.9858   73.3100   -4.3244 P.3     1  UNL1        0.2189
      2 O          24.1409   74.1597   -3.9605 O.2     1  UNL1       -0.5170
      3 O          23.2134   71.8217   -3.7537 O.3     1  UNL1       -0.4371
      4 O          22.8458   73.2534   -5.9275 O.3     1  UNL1       -0.3112
      5 C          22.4629   74.5611   -6.3560 C.3     1  UNL1        0.1811
      6 C          19.6137   73.4514   -8.2476 C.3     1  UNL1        0.2383
      7 C          19.1981   74.8390   -7.6978 C.3     1  UNL1        0.1895
      8 O          18.2975   75.4941   -8.5916 O.3     1  UNL1       -0.3779
      9 C          20.5565   75.5848   -7.6357 C.3     1  UNL1        0.1713
     10 C          21.6036   74.4545   -7.6168 C.3     1  UNL1        0.1764
     11 O          20.8891   73.2068   -7.6174 O.3     1  UNL1       -0.3308
     12 O          20.7256   76.4130   -8.7882 O.3     1  UNL1       -0.3794
     13 H          18.0783   76.3475   -8.1928 H       1  UNL1        0.2106
     14 H          20.0079   77.0602   -8.7747 H       1  UNL1        0.2105
     15 N          18.6423   72.4275   -7.8613 N.ar    1  UNL1       -0.2551
     16 C          18.4320   71.3712   -8.6659 C.ar    1  UNL1        0.3323
     17 N          17.5474   70.4122   -8.3340 N.ar    1  UNL1       -0.2743
     18 C          16.8470   70.5020   -7.1854 C.ar    1  UNL1        0.2626
     19 C          17.0542   71.6118   -6.3319 C.ar    1  UNL1        0.0795
     20 C          17.9514   72.5565   -6.6866 C.ar    1  UNL1        0.0869
     21 O          19.0561   71.2760   -9.7052 O.2     1  UNL1       -0.2464
     22 O          16.0435   69.6380   -6.8866 O.2     1  UNL1       -0.2670
     23 H          17.4119   69.6548   -8.9240 H       1  UNL1        0.1734
     24 O          21.6430   73.9294   -3.6902 O.3     1  UNL1       -0.2703
     25 P          22.0249   74.4593   -2.2196 P.3     1  UNL1        0.2208
     26 O          20.9145   75.2793   -1.6871 O.2     1  UNL1       -0.5170
     27 O          23.3608   75.3542   -2.3010 O.3     1  UNL1       -0.4371
     28 O          22.2801   73.2040   -1.2450 O.3     1  UNL1       -0.2865
     29 C          21.0274   72.8934   -0.6325 C.3     1  UNL1        0.2611
     30 C          21.2530   72.5787    0.8474 C.3     1  UNL1        0.1582
     31 C          22.2214   71.3965    0.9664 C.3     1  UNL1        0.1625
     32 C          21.6808   70.2337    0.1276 C.3     1  UNL1        0.1686
     33 C          21.4257   70.7247   -1.2990 C.3     1  UNL1        0.1760
     34 O          22.3239   70.9974    2.3345 O.3     1  UNL1       -0.3801
     35 O          22.6391   69.1741    0.1057 O.3     1  UNL1       -0.3794
     36 O          20.4485   71.7645   -1.2835 O.3     1  UNL1       -0.3263
     37 H          22.9415   70.2536    2.3630 H       1  UNL1        0.2105
     38 H          22.2597   68.4648   -0.4324 H       1  UNL1        0.2105
     39 C          21.4071   74.0923    2.7499 C.2     1  UNL1        0.2231
     40 C          21.9949   75.2983    3.4373 C.3     1  UNL1        0.0946
     41 N          21.8241   73.7498    1.5158 N.am    1  UNL1       -0.2994
     42 O          20.5580   73.4304    3.3077 O.2     1  UNL1       -0.2751
     43 H          22.5034   74.2795    1.0691 H       1  UNL1        0.1496
     44 C          20.9160   69.5623   -2.1536 C.3     1  UNL1        0.1693
     45 O          19.4884   69.5231   -2.1025 O.3     1  UNL1       -0.3794
     46 H          19.2091   68.7786   -2.6522 H       1  UNL1        0.2105
@<TRIPOS>BOND
     1    29    30    1
     2    29    28    1
     3    29    36    1
     4    30    31    1
     5    30    41    1
     6    31    32    1
     7    31    34    1
     8    32    33    1
     9    32    35    1
    10    33    44    1
    11    33    36    1
    12    44    45    1
    13    39    40    1
    14    39    41   am
    15    39    42    2
    16    41    43    1
    17    28    25    1
    18    34    37    1
    19    35    38    1
    20    45    46    1
    21    15    16   ar
    22    15    20   ar
    23    15     6    1
    24    16    17   ar
    25    16    21    2
    26    17    18   ar
    27    17    23    1
    28    18    19   ar
    29    18    22    2
    30    19    20   ar
    31     6     7    1
    32     6    11    1
    33     7     8    1
    34     7     9    1
    35     8    13    1
    36     9    10    1
    37     9    12    1
    38    10    11    1
    39    10     5    1
    40    12    14    1
    41     5     4    1
    42     4     1    1
    43     1     2    2
    44     1     3    1
    45     1    24    1
    46    24    25    1
    47    25    26    2
    48    25    27    1
@<TRIPOS>MOLECULE
UD1
 46 48 0 0 0
SMALL
GASTEIGER

@<TRIPOS>ATOM
      1 P          22.7745   73.6615   -4.1096 P.3     1  UNL1        0.2189
      2 O          23.7914   72.5917   -4.0096 O.2     1  UNL1       -0.5170
      3 O          23.2250   74.7273   -5.2293 O.3     1  UNL1       -0.4371
      4 O          22.6364   74.4045   -2.6877 O.3     1  UNL1       -0.3112
      5 C          21.8673   73.5453   -1.8448 C.3     1  UNL1        0.1811
      6 C          23.0451   72.2423    1.2924 C.3     1  UNL1        0.2383
      7 C          22.0802   71.1544    0.7580 C.3     1  UNL1        0.1895
      8 O          22.4840   69.8552    1.1919 O.3     1  UNL1       -0.3779
      9 C          22.2431   71.3005   -0.7773 C.3     1  UNL1        0.1713
     10 C          22.8061   72.7232   -0.9604 C.3     1  UNL1        0.1764
     11 O          22.8967   73.3205    0.3442 O.3     1  UNL1       -0.3308
     12 O          23.1594   70.3246   -1.2784 O.3     1  UNL1       -0.3794
     13 H          21.8451   69.2271    0.8276 H       1  UNL1        0.2106
     14 H          22.7799   69.4580   -1.0810 H       1  UNL1        0.2105
     15 N          22.6484   72.6754    2.6328 N.ar    1  UNL1       -0.2551
     16 C          21.4019   72.4278    3.0713 C.ar    1  UNL1        0.3323
     17 N          21.0108   72.8112    4.3010 N.ar    1  UNL1       -0.2743
     18 C          21.8668   73.4624    5.1141 C.ar    1  UNL1        0.2626
     19 C          23.1802   73.7348    4.6629 C.ar    1  UNL1        0.0795
     20 C          23.5479   73.3343    3.4269 C.ar    1  UNL1        0.0869
     21 O          20.6183   71.8415    2.3496 O.2     1  UNL1       -0.2464
     22 O          21.5128   73.8137    6.2243 O.2     1  UNL1       -0.2670
     23 H          20.1093   72.6202    4.6027 H       1  UNL1        0.1734
     24 O          21.3575   73.0185   -4.5187 O.3     1  UNL1       -0.2703
     25 P          21.1878   73.2377   -6.1038 P.3     1  UNL1        0.2208
     26 O          22.3560   72.6655   -6.8086 O.2     1  UNL1       -0.5170
     27 O          21.0895   74.8131   -6.4210 O.3     1  UNL1       -0.4371
     28 O          19.8458   72.5056   -6.6075 O.3     1  UNL1       -0.2865
     29 C          18.8079   72.8697   -5.6957 C.3     1  UNL1        0.2611
     30 C          18.1128   71.6042   -5.1903 C.3     1  UNL1        0.1582
     31 C          17.5379   70.8366   -6.3861 C.3     1  UNL1        0.1625
     32 C          16.6520   71.7869   -7.1986 C.3     1  UNL1        0.1686
     33 C          17.4584   73.0374   -7.5551 C.3     1  UNL1        0.1760
     34 O          16.7594   69.7339   -5.9177 O.3     1  UNL1       -0.3801
     35 O          16.2241   71.1350   -8.3959 O.3     1  UNL1       -0.3794
     36 O          17.8641   73.7061   -6.3614 O.3     1  UNL1       -0.3263
     37 H          16.4184   69.2801   -6.7007 H       1  UNL1        0.2105
     38 H          15.6711   71.7673   -8.8764 H       1  UNL1        0.2105
     39 C          18.7344   70.1520   -3.3359 C.2     1  UNL1        0.2231
     40 C          19.7318   69.2849   -2.6109 C.3     1  UNL1        0.0946
     41 N          19.0812   70.7614   -4.4859 N.am    1  UNL1       -0.2994
     42 O          17.6194   70.3017   -2.8835 O.2     1  UNL1       -0.2751
     43 H          19.9735   70.6419   -4.8480 H       1  UNL1        0.1496
     44 C          16.5925   73.9790   -8.3946 C.3     1  UNL1        0.1693
     45 O          15.5334   73.2372   -9.0030 O.3     1  UNL1       -0.3794
     46 H          15.0134   73.8660   -9.5216 H       1  UNL1        0.2105
@<TRIPOS>BOND
     1    29    30    1
     2    29    28    1
     3    29    36    1
     4    30    31    1
     5    30    41    1
     6    31    32    1
     7    31    34    1
     8    32    33    1
     9    32    35    1
    10    33    44    1
    11    33    36    1
    12    44    45    1
    13    39    40    1
    14    39    41   am
    15    39    42    2
    16    41    43    1
    17    28    25    1
    18    34    37    1
    19    35    38    1
    20    45    46    1
    21    15    16   ar
    22    15    20   ar
    23    15     6    1
    24    16    17   ar
    25    16    21    2
    26    17    18   ar
    27    17    23    1
    28    18    19   ar
    29    18    22    2
    30    19    20   ar
    31     6     7    1
    32     6    11    1
    33     7     8    1
    34     7     9    1
    35     8    13    1
    36     9    10    1
    37     9    12    1
    38    10    11    1
    39    10     5    1
    40    12    14    1
    41     5     4    1
    42     4     1    1
    43     1     2    2
    44     1     3    1
    45     1    24    1
    46    24    25    1
    47    25    26    2
    48    25    27    1
@<TRIPOS>MOLECULE
UD1
 46 48 0 0 0
SMALL
GASTEIGER

@<TRIPOS>ATOM
      1 P          20.0917   70.9714   -2.4115 P.3     1  UNL1        0.2189
      2 O          19.7429   69.5987   -1.9839 O.2     1  UNL1       -0.5170
      3 O          21.4901   70.9461   -3.2092 O.3     1  UNL1       -0.4371
      4 O          20.2311   71.9174   -1.1159 O.3     1  UNL1       -0.3112
      5 C          21.2964   72.8306   -1.3830 C.3     1  UNL1        0.1811
      6 C          23.1291   72.3311    1.6697 C.3     1  UNL1        0.2383
      7 C          22.4913   70.9514    1.3696 C.3     1  UNL1        0.1895
      8 O          23.3132   69.8911    1.8590 O.3     1  UNL1       -0.3779
      9 C          22.4442   70.9447   -0.1805 C.3     1  UNL1        0.1713
     10 C          22.5260   72.4349   -0.5640 C.3     1  UNL1        0.1764
     11 O          22.5637   73.1916    0.6581 O.3     1  UNL1       -0.3308
     12 O          23.5575   70.2229   -0.7118 O.3     1  UNL1       -0.3794
     13 H          22.8618   69.0637    1.6418 H       1  UNL1        0.2106
     14 H          23.4818   69.3152   -0.3886 H       1  UNL1        0.2105
     15 N          22.7587   72.7945    3.0074 N.ar    1  UNL1       -0.2551
     16 C          21.5339   72.5238    3.4910 C.ar    1  UNL1        0.3323
     17 N          21.1674   72.9343    4.7196 N.ar    1  UNL1       -0.2743
     18 C          22.0264   73.6363    5.4858 C.ar    1  UNL1        0.2626
     19 C          23.3170   73.9335    4.9867 C.ar    1  UNL1        0.0795
     20 C          23.6604   73.5050    3.7531 C.ar    1  UNL1        0.0869
     21 O          20.7479   71.8915    2.8119 O.2     1  UNL1       -0.2464
     22 O          21.6945   74.0121    6.5948 O.2     1  UNL1       -0.2670
     23 H          20.2815   72.7260    5.0543 H       1  UNL1        0.1734
     24 O          18.9351   71.5444   -3.3722 O.3     1  UNL1       -0.2703
     25 P          18.3946   70.3025   -4.2409 P.3     1  UNL1        0.2208
     26 O          17.0298   69.9457   -3.7952 O.2     1  UNL1       -0.5170
     27 O          19.3720   69.0392   -4.0383 O.3     1  UNL1       -0.4371
     28 O          18.3614   70.7091   -5.7979 O.3     1  UNL1       -0.2865
     29 C          18.5300   72.1264   -5.8598 C.3     1  UNL1        0.2611
     30 C          17.3006   72.7529   -6.5203 C.3     1  UNL1        0.1582
     31 C          17.1333   72.1659   -7.9264 C.3     1  UNL1        0.1625
     32 C          18.4481   72.3463   -8.6924 C.3     1  UNL1        0.1686
     33 C          19.5906   71.7476   -7.8693 C.3     1  UNL1        0.1760
     34 O          16.0802   72.8495   -8.6084 O.3     1  UNL1       -0.3801
     35 O          18.3630   71.6770   -9.9520 O.3     1  UNL1       -0.3794
     36 O          19.6960   72.4322   -6.6216 O.3     1  UNL1       -0.3263
     37 H          16.0096   72.4491   -9.4859 H       1  UNL1        0.2105
     38 H          19.2097   71.8150  -10.3998 H       1  UNL1        0.2105
     39 C          15.6616   73.3540   -4.8214 C.2     1  UNL1        0.2231
     40 C          14.4366   73.0486   -3.9977 C.3     1  UNL1        0.0946
     41 N          16.1104   72.4569   -5.7203 N.am    1  UNL1       -0.2994
     42 O          16.2438   74.4073   -4.6744 O.2     1  UNL1       -0.2751
     43 H          15.6447   71.6137   -5.8379 H       1  UNL1        0.1496
     44 C          20.9041   71.8936   -8.6404 C.3     1  UNL1        0.1693
     45 O          21.8960   72.4693   -7.7879 O.3     1  UNL1       -0.3794
     46 H          22.7055   72.5440   -8.3112 H       1  UNL1        0.2105
@<TRIPOS>BOND
     1    29    30    1
     2    29    28    1
     3    29    36    1
     4    30    31    1
     5    30    41    1
     6    31    32    1
     7    31    34    1
     8    32    33    1
     9    32    35    1
    10    33    44    1
    11    33    36    1
    12    44    45    1
    13    39    40    1
    14    39    41   am
    15    39    42    2
    16    41    43    1
    17    28    25    1
    18    34    37    1
    19    35    38    1
    20    45    46    1
    21    15    16   ar
    22    15    20   ar
    23    15     6    1
    24    16    17   ar
    25    16    21    2
    26    17    18   ar
    27    17    23    1
    28    18    19   ar
    29    18    22    2
    30    19    20   ar
    31     6     7    1
    32     6    11    1
    33     7     8    1
    34     7     9    1
    35     8    13    1
    36     9    10    1
    37     9    12    1
    38    10    11    1
    39    10     5    1
    40    12    14    1
    41     5     4    1
    42     4     1    1
    43     1     2    2
    44     1     3    1
    45     1    24    1
    46    24    25    1
    47    25    26    2
    48    25    27    1
@<TRIPOS>MOLECULE
UD1
 46 48 0 0 0
SMALL
GASTEIGER

@<TRIPOS>ATOM
      1 P          21.4703   72.9517   -5.4427 P.3     1  UNL1        0.2189
      2 O          21.3232   74.2239   -4.7020 O.2     1  UNL1       -0.5170
      3 O          22.8260   72.9895   -6.3105 O.3     1  UNL1       -0.4371
      4 O          20.2103   72.7551   -6.4258 O.3     1  UNL1       -0.3112
      5 C          20.0918   71.3529   -6.6715 C.3     1  UNL1        0.1811
      6 C          16.5718   71.8333   -6.1187 C.3     1  UNL1        0.2383
      7 C          16.8464   72.5117   -7.4842 C.3     1  UNL1        0.1895
      8 O          15.7001   72.4358   -8.3324 O.3     1  UNL1       -0.3779
      9 C          18.0088   71.6528   -8.0466 C.3     1  UNL1        0.1713
     10 C          18.6142   70.9797   -6.7996 C.3     1  UNL1        0.1764
     11 O          17.8874   71.4608   -5.6562 O.3     1  UNL1       -0.3308
     12 O          17.5104   70.6728   -8.9598 O.3     1  UNL1       -0.3794
     13 H          15.9357   72.8743   -9.1617 H       1  UNL1        0.2106
     14 H          17.0924   71.1547   -9.6859 H       1  UNL1        0.2105
     15 N          15.9446   72.7731   -5.1887 N.ar    1  UNL1       -0.2551
     16 C          15.6845   72.3885   -3.9270 C.ar    1  UNL1        0.3323
     17 N          15.1120   73.2331   -3.0490 N.ar    1  UNL1       -0.2743
     18 C          14.7797   74.4840   -3.4271 C.ar    1  UNL1        0.2626
     19 C          15.0424   74.9000   -4.7541 C.ar    1  UNL1        0.0795
     20 C          15.6225   74.0342   -5.6127 C.ar    1  UNL1        0.0869
     21 O          15.9784   71.2636   -3.5710 O.2     1  UNL1       -0.2464
     22 O          14.2577   75.2469   -2.6354 O.2     1  UNL1       -0.2670
     23 H          14.9360   72.9405   -2.1415 H       1  UNL1        0.1734
     24 O          21.5333   71.7278   -4.4001 O.3     1  UNL1       -0.2703
     25 P          22.8165   71.9813   -3.4628 P.3     1  UNL1        0.2208
     26 O          23.7411   72.9199   -4.1357 O.2     1  UNL1       -0.5170
     27 O          23.5713   70.5844   -3.1958 O.3     1  UNL1       -0.4371
     28 O          22.3416   72.6097   -2.0592 O.3     1  UNL1       -0.2865
     29 C          21.1291   71.9464   -1.6971 C.3     1  UNL1        0.2611
     30 C          20.1731   72.9550   -1.0577 C.3     1  UNL1        0.1582
     31 C          20.8438   73.5684    0.1766 C.3     1  UNL1        0.1625
     32 C          21.3065   72.4343    1.0974 C.3     1  UNL1        0.1686
     33 C          22.1797   71.4665    0.2960 C.3     1  UNL1        0.1760
     34 O          19.9082   74.3987    0.8670 O.3     1  UNL1       -0.3801
     35 O          22.0630   72.9772    2.1812 O.3     1  UNL1       -0.3794
     36 O          21.4189   70.9015   -0.7710 O.3     1  UNL1       -0.3263
     37 H          20.3709   74.7631    1.6340 H       1  UNL1        0.2105
     38 H          22.3345   72.2309    2.7343 H       1  UNL1        0.2105
     39 C          18.5919   74.4468   -2.1570 C.2     1  UNL1        0.2231
     40 C          18.2695   75.5344   -3.1498 C.3     1  UNL1        0.0946
     41 N          19.8595   74.0117   -2.0217 N.am    1  UNL1       -0.2994
     42 O          17.7100   73.9628   -1.4802 O.2     1  UNL1       -0.2751
     43 H          20.5654   74.3988   -2.5633 H       1  UNL1        0.1496
     44 C          22.6738   70.3472    1.2148 C.3     1  UNL1        0.1693
     45 O          22.7122   69.1167    0.4891 O.3     1  UNL1       -0.3794
     46 H          23.0276   68.4396    1.1028 H       1  UNL1        0.2105
@<TRIPOS>BOND
     1    29    30    1
     2    29    28    1
     3    29    36    1
     4    30    31    1
     5    30    41    1
     6    31    32    1
     7    31    34    1
     8    32    33    1
     9    32    35    1
    10    33    44    1
    11    33    36    1
    12    44    45    1
    13    39    40    1
    14    39    41   am
    15    39    42    2
    16    41    43    1
    17    28    25    1
    18    34    37    1
    19    35    38    1
    20    45    46    1
    21    15    16   ar
    22    15    20   ar
    23    15     6    1
    24    16    17   ar
    25    16    21    2
    26    17    18   ar
    27    17    23    1
    28    18    19   ar
    29    18    22    2
    30    19    20   ar
    31     6     7    1
    32     6    11    1
    33     7     8    1
    34     7     9    1
    35     8    13    1
    36     9    10    1
    37     9    12    1
    38    10    11    1
    39    10     5    1
    40    12    14    1
    41     5     4    1
    42     4     1    1
    43     1     2    2
    44     1     3    1
    45     1    24    1
    46    24    25    1
    47    25    26    2
    48    25    27    1
@<TRIPOS>MOLECULE
UD1
 46 48 0 0 0
SMALL
GASTEIGER

@<TRIPOS>ATOM
      1 P          22.6836   71.9475   -2.9260 P.3     1  UNL1        0.2189
      2 O          22.8889   70.4826   -2.9493 O.2     1  UNL1       -0.5170
      3 O          23.6505   72.6423   -4.0099 O.3     1  UNL1       -0.4371
      4 O          23.0294   72.5139   -1.4589 O.3     1  UNL1       -0.3112
      5 C          22.6562   71.4995   -0.5250 C.3     1  UNL1        0.1811
      6 C          20.6363   72.8429    2.1288 C.3     1  UNL1        0.2383
      7 C          20.8635   74.0388    1.1704 C.3     1  UNL1        0.1895
      8 O          19.7533   74.9364    1.2010 O.3     1  UNL1       -0.3779
      9 C          20.9689   73.3359   -0.2081 C.3     1  UNL1        0.1713
     10 C          21.3330   71.8799    0.1410 C.3     1  UNL1        0.1764
     11 O          21.4647   71.8009    1.5706 O.3     1  UNL1       -0.3308
     12 O          19.7177   73.3943   -0.8964 O.3     1  UNL1       -0.3794
     13 H          19.9569   75.6550    0.5865 H       1  UNL1        0.2106
     14 H          19.5171   74.3299   -1.0323 H       1  UNL1        0.2105
     15 N          21.0700   73.1756    3.4862 N.ar    1  UNL1       -0.2551
     16 C          20.1829   73.6713    4.3664 C.ar    1  UNL1        0.3323
     17 N          20.5529   73.9824    5.6228 N.ar    1  UNL1       -0.2743
     18 C          21.8304   73.8089    6.0176 C.ar    1  UNL1        0.2626
     19 C          22.7759   73.2934    5.0994 C.ar    1  UNL1        0.0795
     20 C          22.3766   72.9847    3.8469 C.ar    1  UNL1        0.0869
     21 O          19.0271   73.8335    4.0253 O.2     1  UNL1       -0.2464
     22 O          22.1671   74.0943    7.1518 O.2     1  UNL1       -0.2670
     23 H          19.8988   74.3345    6.2459 H       1  UNL1        0.1734
     24 O          21.1502   72.2803   -3.2818 O.3     1  UNL1       -0.2703
     25 P          21.1028   72.6310   -4.8516 P.3     1  UNL1        0.2208
     26 O          22.3458   72.1585   -5.5002 O.2     1  UNL1       -0.5170
     27 O          20.9709   74.2242   -5.0425 O.3     1  UNL1       -0.4371
     28 O          19.8355   71.9043   -5.5271 O.3     1  UNL1       -0.2865
     29 C          19.2143   72.8650   -6.3829 C.3     1  UNL1        0.2611
     30 C          17.8317   73.2149   -5.8298 C.3     1  UNL1        0.1582
     31 C          16.9874   71.9382   -5.7468 C.3     1  UNL1        0.1625
     32 C          16.9875   71.2603   -7.1210 C.3     1  UNL1        0.1686
     33 C          18.4341   71.0552   -7.5754 C.3     1  UNL1        0.1760
     34 O          15.6491   72.2726   -5.3742 O.3     1  UNL1       -0.3801
     35 O          16.3297   69.9952   -7.0299 O.3     1  UNL1       -0.3794
     36 O          19.0861   72.3190   -7.6939 O.3     1  UNL1       -0.3263
     37 H          15.1547   71.4424   -5.3337 H       1  UNL1        0.2105
     38 H          16.3531   69.6034   -7.9145 H       1  UNL1        0.2105
     39 C          17.4956   75.0331   -4.2438 C.2     1  UNL1        0.2231
     40 C          17.6404   75.6333   -2.8686 C.3     1  UNL1        0.0946
     41 N          17.9717   73.7982   -4.4939 N.am    1  UNL1       -0.2994
     42 O          16.9510   75.6623   -5.1256 O.2     1  UNL1       -0.2751
     43 H          18.4078   73.2945   -3.7884 H       1  UNL1        0.1496
     44 C          18.4458   70.3491   -8.9328 C.3     1  UNL1        0.1693
     45 O          18.5486   71.3214   -9.9750 O.3     1  UNL1       -0.3794
     46 H          18.5524   70.8360  -10.8111 H       1  UNL1        0.2105
@<TRIPOS>BOND
     1    29    30    1
     2    29    28    1
     3    29    36    1
     4    30    31    1
     5    30    41    1
     6    31    32    1
     7    31    34    1
     8    32    33    1
     9    32    35    1
    10    33    44    1
    11    33    36    1
    12    44    45    1
    13    39    40    1
    14    39    41   am
    15    39    42    2
    16    41    43    1
    17    28    25    1
    18    34    37    1
    19    35    38    1
    20    45    46    1
    21    15    16   ar
    22    15    20   ar
    23    15     6    1
    24    16    17   ar
    25    16    21    2
    26    17    18   ar
    27    17    23    1
    28    18    19   ar
    29    18    22    2
    30    19    20   ar
    31     6     7    1
    32     6    11    1
    33     7     8    1
    34     7     9    1
    35     8    13    1
    36     9    10    1
    37     9    12    1
    38    10    11    1
    39    10     5    1
    40    12    14    1
    41     5     4    1
    42     4     1    1
    43     1     2    2
    44     1     3    1
    45     1    24    1
    46    24    25    1
    47    25    26    2
    48    25    27    1
@<TRIPOS>MOLECULE
UD1
 46 48 0 0 0
SMALL
GASTEIGER

@<TRIPOS>ATOM
      1 P          22.4657   73.7250   -5.0361 P.3     1  UNL1        0.2189
      2 O          22.7372   72.5810   -5.9340 O.2     1  UNL1       -0.5170
      3 O          23.8526   74.2685   -4.4248 O.3     1  UNL1       -0.4371
      4 O          21.5021   73.2486   -3.8372 O.3     1  UNL1       -0.3112
      5 C          22.0113   73.8358   -2.6388 C.3     1  UNL1        0.1811
      6 C          22.4150   72.0756    0.4703 C.3     1  UNL1        0.2383
      7 C          21.2815   71.3148   -0.2622 C.3     1  UNL1        0.1895
      8 O          21.2850   69.9307    0.0891 O.3     1  UNL1       -0.3779
      9 C          21.6685   71.5088   -1.7514 C.3     1  UNL1        0.1713
     10 C          22.5918   72.7424   -1.7406 C.3     1  UNL1        0.1764
     11 O          22.6654   73.2121   -0.3837 O.3     1  UNL1       -0.3308
     12 O          22.3634   70.3600   -2.2415 O.3     1  UNL1       -0.3794
     13 H          20.5591   69.5163   -0.3976 H       1  UNL1        0.2106
     14 H          21.7550   69.6127   -2.1669 H       1  UNL1        0.2105
     15 N          21.9750   72.5129    1.7956 N.ar    1  UNL1       -0.2551
     16 C          21.0068   73.4392    1.9042 C.ar    1  UNL1        0.3323
     17 N          20.5796   73.8573    3.1105 N.ar    1  UNL1       -0.2743
     18 C          21.1268   73.3562    4.2362 C.ar    1  UNL1        0.2626
     19 C          22.1512   72.3849    4.1364 C.ar    1  UNL1        0.0795
     20 C          22.5570   71.9795    2.9139 C.ar    1  UNL1        0.0869
     21 O          20.5033   73.9005    0.8981 O.2     1  UNL1       -0.2464
     22 O          20.7447   73.7370    5.3273 O.2     1  UNL1       -0.2670
     23 H          19.8768   74.5227    3.1702 H       1  UNL1        0.1734
     24 O          21.7470   74.9006   -5.8670 O.3     1  UNL1       -0.2703
     25 P          21.5423   74.3524   -7.3659 P.3     1  UNL1        0.2208
     26 O          22.7867   73.6973   -7.8256 O.2     1  UNL1       -0.5170
     27 O          21.1908   75.5816   -8.3444 O.3     1  UNL1       -0.4371
     28 O          20.3355   73.2877   -7.3892 O.3     1  UNL1       -0.2865
     29 C          19.5412   73.5866   -8.5385 C.3     1  UNL1        0.2611
     30 C          18.1383   73.9992   -8.0896 C.3     1  UNL1        0.1582
     31 C          17.5136   72.8554   -7.2827 C.3     1  UNL1        0.1625
     32 C          17.5799   71.5728   -8.1185 C.3     1  UNL1        0.1686
     33 C          19.0257   71.3416   -8.5628 C.3     1  UNL1        0.1760
     34 O          16.1513   73.1674   -6.9855 O.3     1  UNL1       -0.3801
     35 O          17.1376   70.4657   -7.3309 O.3     1  UNL1       -0.3794
     36 O          19.4616   72.4328   -9.3726 O.3     1  UNL1       -0.3263
     37 H          15.7986   72.4233   -6.4783 H       1  UNL1        0.2105
     38 H          17.1961   69.6808   -7.8939 H       1  UNL1        0.2105
     39 C          17.8905   76.4005   -7.7632 C.2     1  UNL1        0.2231
     40 C          17.9797   77.6353   -6.9031 C.3     1  UNL1        0.0946
     41 N          18.2242   75.1989   -7.2543 N.am    1  UNL1       -0.2994
     42 O          17.5189   76.4888   -8.9139 O.2     1  UNL1       -0.2751
     43 H          18.5219   75.1280   -6.3334 H       1  UNL1        0.1496
     44 C          19.1084   70.0452   -9.3713 C.3     1  UNL1        0.1693
     45 O          19.2928   70.3565  -10.7538 O.3     1  UNL1       -0.3794
     46 H          19.3394   69.5144  -11.2264 H       1  UNL1        0.2105
@<TRIPOS>BOND
     1    29    30    1
     2    29    28    1
     3    29    36    1
     4    30    31    1
     5    30    41    1
     6    31    32    1
     7    31    34    1
     8    32    33    1
     9    32    35    1
    10    33    44    1
    11    33    36    1
    12    44    45    1
    13    39    40    1
    14    39    41   am
    15    39    42    2
    16    41    43    1
    17    28    25    1
    18    34    37    1
    19    35    38    1
    20    45    46    1
    21    15    16   ar
    22    15    20   ar
    23    15     6    1
    24    16    17   ar
    25    16    21    2
    26    17    18   ar
    27    17    23    1
    28    18    19   ar
    29    18    22    2
    30    19    20   ar
    31     6     7    1
    32     6    11    1
    33     7     8    1
    34     7     9    1
    35     8    13    1
    36     9    10    1
    37     9    12    1
    38    10    11    1
    39    10     5    1
    40    12    14    1
    41     5     4    1
    42     4     1    1
    43     1     2    2
    44     1     3    1
    45     1    24    1
    46    24    25    1
    47    25    26    2
    48    25    27    1
@<TRIPOS>MOLECULE
UD1
 46 48 0 0 0
SMALL
GASTEIGER

@<TRIPOS>ATOM
      1 P          22.7318   73.4647   -3.8929 P.3     1  UNL1        0.2189
      2 O          23.8760   72.6472   -4.3526 O.2     1  UNL1       -0.5170
      3 O          22.8803   74.9637   -4.4617 O.3     1  UNL1       -0.4371
      4 O          22.7119   73.5021   -2.2833 O.3     1  UNL1       -0.3112
      5 C          21.7920   72.4958   -1.8572 C.3     1  UNL1        0.1811
      6 C          20.4468   73.8074    1.2083 C.3     1  UNL1        0.2383
      7 C          21.0378   75.0427    0.4838 C.3     1  UNL1        0.1895
      8 O          20.3046   76.2245    0.8078 O.3     1  UNL1       -0.3779
      9 C          20.8488   74.6661   -1.0088 C.3     1  UNL1        0.1713
     10 C          20.7030   73.1322   -0.9923 C.3     1  UNL1        0.1764
     11 O          20.8480   72.7015    0.3718 O.3     1  UNL1       -0.3308
     12 O          19.6710   75.2815   -1.5348 O.3     1  UNL1       -0.3794
     13 H          20.7214   76.9533    0.3276 H       1  UNL1        0.2106
     14 H          19.7991   76.2368   -1.4628 H       1  UNL1        0.2105
     15 N          21.0141   73.6718    2.5504 N.ar    1  UNL1       -0.2551
     16 C          21.3802   72.4587    2.9995 C.ar    1  UNL1        0.3323
     17 N          21.9083   72.3048    4.2282 N.ar    1  UNL1       -0.2743
     18 C          22.0708   73.3717    5.0365 C.ar    1  UNL1        0.2626
     19 C          21.6840   74.6538    4.5785 C.ar    1  UNL1        0.0795
     20 C          21.1619   74.7803    3.3397 C.ar    1  UNL1        0.0869
     21 O          21.2400   71.4868    2.2823 O.2     1  UNL1       -0.2464
     22 O          22.5437   73.2331    6.1493 O.2     1  UNL1       -0.2670
     23 H          22.1713   71.4231    4.5341 H       1  UNL1        0.1734
     24 O          21.3600   72.8189   -4.4315 O.3     1  UNL1       -0.2703
     25 P          21.2722   73.1569   -6.0022 P.3     1  UNL1        0.2208
     26 O          22.4316   72.5595   -6.7008 O.2     1  UNL1       -0.5170
     27 O          21.2859   74.7535   -6.2099 O.3     1  UNL1       -0.4371
     28 O          19.9100   72.5502   -6.6078 O.3     1  UNL1       -0.2865
     29 C          18.8474   72.9908   -5.7605 C.3     1  UNL1        0.2611
     30 C          18.0797   71.7747   -5.2392 C.3     1  UNL1        0.1582
     31 C          17.5291   70.9816   -6.4297 C.3     1  UNL1        0.1625
     32 C          16.7199   71.9313   -7.3193 C.3     1  UNL1        0.1686
     33 C          17.5914   73.1343   -7.6862 C.3     1  UNL1        0.1760
     34 O          16.6863   69.9297   -5.9557 O.3     1  UNL1       -0.3801
     35 O          16.3207   71.2480   -8.5090 O.3     1  UNL1       -0.3794
     36 O          17.9692   73.8350   -6.5018 O.3     1  UNL1       -0.3263
     37 H          16.3630   69.4577   -6.7355 H       1  UNL1        0.2105
     38 H          15.8160   71.8810   -9.0392 H       1  UNL1        0.2105
     39 C          18.5552   70.3706   -3.3062 C.2     1  UNL1        0.2231
     40 C          19.4830   69.4961   -2.5020 C.3     1  UNL1        0.0946
     41 N          18.9804   70.9247   -4.4579 N.am    1  UNL1       -0.2994
     42 O          17.4257   70.5761   -2.9161 O.2     1  UNL1       -0.2751
     43 H          19.8844   70.7607   -4.7702 H       1  UNL1        0.1496
     44 C          16.8030   74.0734   -8.6015 C.3     1  UNL1        0.1693
     45 O          17.1338   73.7995   -9.9644 O.3     1  UNL1       -0.3794
     46 H          16.6173   74.4113  -10.5061 H       1  UNL1        0.2105
@<TRIPOS>BOND
     1    29    30    1
     2    29    28    1
     3    29    36    1
     4    30    31    1
     5    30    41    1
     6    31    32    1
     7    31    34    1
     8    32    33    1
     9    32    35    1
    10    33    44    1
    11    33    36    1
    12    44    45    1
    13    39    40    1
    14    39    41   am
    15    39    42    2
    16    41    43    1
    17    28    25    1
    18    34    37    1
    19    35    38    1
    20    45    46    1
    21    15    16   ar
    22    15    20   ar
    23    15     6    1
    24    16    17   ar
    25    16    21    2
    26    17    18   ar
    27    17    23    1
    28    18    19   ar
    29    18    22    2
    30    19    20   ar
    31     6     7    1
    32     6    11    1
    33     7     8    1
    34     7     9    1
    35     8    13    1
    36     9    10    1
    37     9    12    1
    38    10    11    1
    39    10     5    1
    40    12    14    1
    41     5     4    1
    42     4     1    1
    43     1     2    2
    44     1     3    1
    45     1    24    1
    46    24    25    1
    47    25    26    2
    48    25    27    1
@<TRIPOS>MOLECULE
UD1
 46 48 0 0 0
SMALL
GASTEIGER

@<TRIPOS>ATOM
      1 P          21.3503   71.0340   -2.5182 P.3     1  UNL1        0.2189
      2 O          22.7452   71.5073   -2.6553 O.2     1  UNL1       -0.5170
      3 O          21.2504   69.5063   -3.0171 O.3     1  UNL1       -0.4371
      4 O          20.3809   71.9549   -3.4155 O.3     1  UNL1       -0.3112
      5 C          21.2230   72.7518   -4.2499 C.3     1  UNL1        0.1811
      6 C          19.6247   72.5224   -7.4624 C.3     1  UNL1        0.2383
      7 C          20.6038   73.7152   -7.6003 C.3     1  UNL1        0.1895
      8 O          21.0758   73.8365   -8.9425 O.3     1  UNL1       -0.3779
      9 C          21.7538   73.3046   -6.6442 C.3     1  UNL1        0.1713
     10 C          21.1051   72.2754   -5.6985 C.3     1  UNL1        0.1764
     11 O          19.7193   72.1676   -6.0665 O.3     1  UNL1       -0.3308
     12 O          22.8273   72.7119   -7.3784 O.3     1  UNL1       -0.3794
     13 H          21.6773   74.5937   -8.9606 H       1  UNL1        0.2106
     14 H          23.1506   73.3847   -7.9924 H       1  UNL1        0.2105
     15 N          18.2601   72.9288   -7.8004 N.ar    1  UNL1       -0.2551
     16 C          17.3460   71.9953   -8.1169 C.ar    1  UNL1        0.3323
     17 N          16.0824   72.3400   -8.4281 N.ar    1  UNL1       -0.2743
     18 C          15.7143   73.6371   -8.4359 C.ar    1  UNL1        0.2626
     19 C          16.6681   74.6305   -8.1104 C.ar    1  UNL1        0.0795
     20 C          17.9272   74.2566   -7.7970 C.ar    1  UNL1        0.0869
     21 O          17.6628   70.8213   -8.1142 O.2     1  UNL1       -0.2464
     22 O          14.5734   73.9502   -8.7218 O.2     1  UNL1       -0.2670
     23 H          15.4348   71.6531   -8.6493 H       1  UNL1        0.1734
     24 O          20.9014   71.1263   -0.9758 O.3     1  UNL1       -0.2703
     25 P          22.1968   70.7653   -0.0922 P.3     1  UNL1        0.2208
     26 O          23.2710   70.2604   -0.9754 O.2     1  UNL1       -0.5170
     27 O          21.8132   69.6330    0.9862 O.3     1  UNL1       -0.4371
     28 O          22.7088   72.0840    0.6755 O.3     1  UNL1       -0.2865
     29 C          21.5489   72.8549    0.9940 C.3     1  UNL1        0.2611
     30 C          21.8440   74.3358    0.7496 C.3     1  UNL1        0.1582
     31 C          23.0318   74.7605    1.6204 C.3     1  UNL1        0.1625
     32 C          22.7309   74.3871    3.0758 C.3     1  UNL1        0.1686
     33 C          22.3718   72.9013    3.1450 C.3     1  UNL1        0.1760
     34 O          23.2225   76.1726    1.5145 O.3     1  UNL1       -0.3801
     35 O          23.8831   74.6398    3.8821 O.3     1  UNL1       -0.3794
     36 O          21.2051   72.6503    2.3626 O.3     1  UNL1       -0.3263
     37 H          23.9775   76.3954    2.0762 H       1  UNL1        0.2105
     38 H          23.6507   74.3908    4.7879 H       1  UNL1        0.2105
     39 C          23.4588   74.5804   -1.0578 C.2     1  UNL1        0.2231
     40 C          23.7957   74.7948   -2.5113 C.3     1  UNL1        0.0946
     41 N          22.1717   74.5436   -0.6624 N.am    1  UNL1       -0.2994
     42 O          24.3466   74.4415   -0.2438 O.2     1  UNL1       -0.2751
     43 H          21.4610   74.6549   -1.3136 H       1  UNL1        0.1496
     44 C          22.1011   72.5105    4.5994 C.3     1  UNL1        0.1693
     45 O          21.5786   73.6372    5.3064 O.3     1  UNL1       -0.3794
     46 H          21.4226   73.3490    6.2159 H       1  UNL1        0.2105
@<TRIPOS>BOND
     1    29    30    1
     2    29    28    1
     3    29    36    1
     4    30    31    1
     5    30    41    1
     6    31    32    1
     7    31    34    1
     8    32    33    1
     9    32    35    1
    10    33    44    1
    11    33    36    1
    12    44    45    1
    13    39    40    1
    14    39    41   am
    15    39    42    2
    16    41    43    1
    17    28    25    1
    18    34    37    1
    19    35    38    1
    20    45    46    1
    21    15    16   ar
    22    15    20   ar
    23    15     6    1
    24    16    17   ar
    25    16    21    2
    26    17    18   ar
    27    17    23    1
    28    18    19   ar
    29    18    22    2
    30    19    20   ar
    31     6     7    1
    32     6    11    1
    33     7     8    1
    34     7     9    1
    35     8    13    1
    36     9    10    1
    37     9    12    1
    38    10    11    1
    39    10     5    1
    40    12    14    1
    41     5     4    1
    42     4     1    1
    43     1     2    2
    44     1     3    1
    45     1    24    1
    46    24    25    1
    47    25    26    2
    48    25    27    1
@<TRIPOS>MOLECULE
UD1
 46 48 0 0 0
SMALL
GASTEIGER

@<TRIPOS>ATOM
      1 P          22.4138   71.7185   -3.1212 P.3     1  UNL1        0.2189
      2 O          22.9609   70.4057   -2.7139 O.2     1  UNL1       -0.5170
      3 O          23.6135   72.6672   -3.6243 O.3     1  UNL1       -0.4371
      4 O          21.6782   72.4059   -1.8645 O.3     1  UNL1       -0.3112
      5 C          22.6559   73.2087   -1.2011 C.3     1  UNL1        0.1811
      6 C          22.6139   73.4451    2.3863 C.3     1  UNL1        0.2383
      7 C          21.2449   72.8177    2.0226 C.3     1  UNL1        0.1895
      8 O          20.7906   71.9462    3.0586 O.3     1  UNL1       -0.3779
      9 C          21.5838   72.0193    0.7369 C.3     1  UNL1        0.1713
     10 C          22.8758   72.6786    0.2165 C.3     1  UNL1        0.1764
     11 O          23.1896   73.7668    1.1023 O.3     1  UNL1       -0.3308
     12 O          21.8072   70.6422    1.0474 O.3     1  UNL1       -0.3794
     13 H          19.9380   71.5907    2.7719 H       1  UNL1        0.2106
     14 H          20.9835   70.3035    1.4228 H       1  UNL1        0.2105
     15 N          22.4338   74.6553    3.1890 N.ar    1  UNL1       -0.2551
     16 C          23.0868   74.7834    4.3571 C.ar    1  UNL1        0.3323
     17 N          22.9432   75.8872    5.1141 N.ar    1  UNL1       -0.2743
     18 C          22.1289   76.8845    4.7137 C.ar    1  UNL1        0.2626
     19 C          21.4308   76.7602    3.4890 C.ar    1  UNL1        0.0795
     20 C          21.5974   75.6446    2.7467 C.ar    1  UNL1        0.0869
     21 O          23.8249   73.8925    4.7317 O.2     1  UNL1       -0.2464
     22 O          21.9946   77.8809    5.3997 O.2     1  UNL1       -0.2670
     23 H          23.4256   75.9649    5.9516 H       1  UNL1        0.1734
     24 O          21.3551   71.5117   -4.3151 O.3     1  UNL1       -0.2703
     25 P          21.4176   72.8364   -5.2264 P.3     1  UNL1        0.2208
     26 O          22.7161   72.8877   -5.9337 O.2     1  UNL1       -0.5170
     27 O          21.2643   74.1389   -4.2925 O.3     1  UNL1       -0.4371
     28 O          20.2213   72.8058   -6.3027 O.3     1  UNL1       -0.2865
     29 C          20.2110   71.4963   -6.8739 C.3     1  UNL1        0.2611
     30 C          20.1882   71.6107   -8.3991 C.3     1  UNL1        0.1582
     31 C          18.9425   72.3962   -8.8243 C.3     1  UNL1        0.1625
     32 C          17.7091   71.7336   -8.2016 C.3     1  UNL1        0.1686
     33 C          17.9177   71.6127   -6.6906 C.3     1  UNL1        0.1760
     34 O          18.8302   72.3817  -10.2486 O.3     1  UNL1       -0.3801
     35 O          16.5538   72.5326   -8.4635 O.3     1  UNL1       -0.3794
     36 O          19.0549   70.7925   -6.4250 O.3     1  UNL1       -0.3263
     37 H          18.0357   72.8861  -10.4713 H       1  UNL1        0.2105
     38 H          15.8024   72.0805   -8.0543 H       1  UNL1        0.2105
     39 C          21.3697   73.6487   -9.0194 C.2     1  UNL1        0.2231
     40 C          22.6068   74.3700   -9.4901 C.3     1  UNL1        0.0946
     41 N          21.3899   72.3119   -8.8559 N.am    1  UNL1       -0.2994
     42 O          20.3555   74.2718   -8.7885 O.2     1  UNL1       -0.2751
     43 H          22.2013   71.8130   -9.0408 H       1  UNL1        0.1496
     44 C          16.6774   70.9815   -6.0546 C.3     1  UNL1        0.1693
     45 O          16.0991   70.0445   -6.9655 O.3     1  UNL1       -0.3794
     46 H          15.3225   69.6710   -6.5272 H       1  UNL1        0.2105
@<TRIPOS>BOND
     1    29    30    1
     2    29    28    1
     3    29    36    1
     4    30    31    1
     5    30    41    1
     6    31    32    1
     7    31    34    1
     8    32    33    1
     9    32    35    1
    10    33    44    1
    11    33    36    1
    12    44    45    1
    13    39    40    1
    14    39    41   am
    15    39    42    2
    16    41    43    1
    17    28    25    1
    18    34    37    1
    19    35    38    1
    20    45    46    1
    21    15    16   ar
    22    15    20   ar
    23    15     6    1
    24    16    17   ar
    25    16    21    2
    26    17    18   ar
    27    17    23    1
    28    18    19   ar
    29    18    22    2
    30    19    20   ar
    31     6     7    1
    32     6    11    1
    33     7     8    1
    34     7     9    1
    35     8    13    1
    36     9    10    1
    37     9    12    1
    38    10    11    1
    39    10     5    1
    40    12    14    1
    41     5     4    1
    42     4     1    1
    43     1     2    2
    44     1     3    1
    45     1    24    1
    46    24    25    1
    47    25    26    2
    48    25    27    1
@<TRIPOS>MOLECULE
UD1
 46 48 0 0 0
SMALL
GASTEIGER

@<TRIPOS>ATOM
      1 P          21.1295   71.3424   -1.0099 P.3     1  UNL1        0.2189
      2 O          20.9015   69.9778   -0.4859 O.2     1  UNL1       -0.5170
      3 O          22.6526   71.4760   -1.5146 O.3     1  UNL1       -0.4371
      4 O          20.8556   72.4174    0.1572 O.3     1  UNL1       -0.3112
      5 C          22.0872   73.1044    0.3844 C.3     1  UNL1        0.1811
      6 C          23.1351   74.3593    3.5867 C.3     1  UNL1        0.2383
      7 C          21.5888   74.3181    3.6730 C.3     1  UNL1        0.1895
      8 O          21.1579   74.0732    5.0122 O.3     1  UNL1       -0.3779
      9 C          21.2431   73.1189    2.7524 C.3     1  UNL1        0.1713
     10 C          22.4860   72.9658    1.8545 C.3     1  UNL1        0.1764
     11 O          23.4059   74.0113    2.2122 O.3     1  UNL1       -0.3308
     12 O          21.0299   71.9377    3.5283 O.3     1  UNL1       -0.3794
     13 H          20.1909   74.0601    4.9975 H       1  UNL1        0.2106
     14 H          20.2792   72.1173    4.1099 H       1  UNL1        0.2105
     15 N          23.6365   75.7007    3.8879 N.ar    1  UNL1       -0.2551
     16 C          24.3683   75.9050    4.9970 C.ar    1  UNL1        0.3323
     17 N          24.8458   77.1274    5.2970 N.ar    1  UNL1       -0.2743
     18 C          24.5876   78.1750    4.4884 C.ar    1  UNL1        0.2626
     19 C          23.8134   77.9752    3.3207 C.ar    1  UNL1        0.0795
     20 C          23.3514   76.7376    3.0409 C.ar    1  UNL1        0.0869
     21 O          24.6098   74.9701    5.7361 O.2     1  UNL1       -0.2464
     22 O          25.0147   79.2815    4.7612 O.2     1  UNL1       -0.2670
     23 H          25.3760   77.2556    6.0986 H       1  UNL1        0.1734
     24 O          20.1294   71.6192   -2.2396 O.3     1  UNL1       -0.2703
     25 P          20.7893   70.9359   -3.5384 P.3     1  UNL1        0.2208
     26 O          21.2660   69.5785   -3.1930 O.2     1  UNL1       -0.5170
     27 O          22.0313   71.8279   -4.0423 O.3     1  UNL1       -0.4371
     28 O          19.6910   70.8367   -4.7107 O.3     1  UNL1       -0.2865
     29 C          19.5874   72.1374   -5.2927 C.3     1  UNL1        0.2611
     30 C          18.1162   72.5537   -5.3402 C.3     1  UNL1        0.1582
     31 C          17.3314   71.5276   -6.1654 C.3     1  UNL1        0.1625
     32 C          18.0101   71.3742   -7.5306 C.3     1  UNL1        0.1686
     33 C          19.4889   71.0439   -7.3177 C.3     1  UNL1        0.1760
     34 O          15.9885   71.9821   -6.3429 O.3     1  UNL1       -0.3801
     35 O          17.3831   70.3176   -8.2600 O.3     1  UNL1       -0.3794
     36 O          20.1245   72.1098   -6.6133 O.3     1  UNL1       -0.3263
     37 H          15.5323   71.3082   -6.8654 H       1  UNL1        0.2105
     38 H          17.8406   70.2549   -9.1105 H       1  UNL1        0.2105
     39 C          16.8962   71.5535   -3.4840 C.2     1  UNL1        0.2231
     40 C          16.3411   71.6066   -2.0835 C.3     1  UNL1        0.0946
     41 N          17.5772   72.6046   -3.9796 N.am    1  UNL1       -0.2994
     42 O          16.7291   70.5645   -4.1653 O.2     1  UNL1       -0.2751
     43 H          17.7109   73.3963   -3.4347 H       1  UNL1        0.1496
     44 C          20.1690   70.8565   -8.6755 C.3     1  UNL1        0.1693
     45 O          19.8973   69.5427   -9.1676 O.3     1  UNL1       -0.3794
     46 H          20.3429   69.4663  -10.0221 H       1  UNL1        0.2105
@<TRIPOS>BOND
     1    29    30    1
     2    29    28    1
     3    29    36    1
     4    30    31    1
     5    30    41    1
     6    31    32    1
     7    31    34    1
     8    32    33    1
     9    32    35    1
    10    33    44    1
    11    33    36    1
    12    44    45    1
    13    39    40    1
    14    39    41   am
    15    39    42    2
    16    41    43    1
    17    28    25    1
    18    34    37    1
    19    35    38    1
    20    45    46    1
    21    15    16   ar
    22    15    20   ar
    23    15     6    1
    24    16    17   ar
    25    16    21    2
    26    17    18   ar
    27    17    23    1
    28    18    19   ar
    29    18    22    2
    30    19    20   ar
    31     6     7    1
    32     6    11    1
    33     7     8    1
    34     7     9    1
    35     8    13    1
    36     9    10    1
    37     9    12    1
    38    10    11    1
    39    10     5    1
    40    12    14    1
    41     5     4    1
    42     4     1    1
    43     1     2    2
    44     1     3    1
    45     1    24    1
    46    24    25    1
    47    25    26    2
    48    25    27    1
@<TRIPOS>MOLECULE
UD1
 46 48 0 0 0
SMALL
GASTEIGER

@<TRIPOS>ATOM
      1 P          22.3112   70.9191   -2.3727 P.3     1  UNL1        0.2189
      2 O          21.7561   69.7210   -1.7055 O.2     1  UNL1       -0.5170
      3 O          23.6006   70.5005   -3.2416 O.3     1  UNL1       -0.4371
      4 O          22.7429   72.0004   -1.2605 O.3     1  UNL1       -0.3112
      5 C          22.5699   71.3763    0.0127 C.3     1  UNL1        0.1811
      6 C          20.6117   72.9954    2.5565 C.3     1  UNL1        0.2383
      7 C          20.8890   74.1071    1.5137 C.3     1  UNL1        0.1895
      8 O          19.8183   75.0512    1.4761 O.3     1  UNL1       -0.3779
      9 C          20.9630   73.3014    0.1906 C.3     1  UNL1        0.1713
     10 C          21.2648   71.8606    0.6461 C.3     1  UNL1        0.1764
     11 O          21.3943   71.8808    2.0779 O.3     1  UNL1       -0.3308
     12 O          19.7148   73.3626   -0.5030 O.3     1  UNL1       -0.3794
     13 H          20.0519   75.7135    0.8111 H       1  UNL1        0.2106
     14 H          19.5544   74.2935   -0.7074 H       1  UNL1        0.2105
     15 N          21.0605   73.4076    3.8870 N.ar    1  UNL1       -0.2551
     16 C          22.3760   73.5080    4.1450 C.ar    1  UNL1        0.3323
     17 N          22.8173   73.8887    5.3585 N.ar    1  UNL1       -0.2743
     18 C          21.9401   74.1682    6.3436 C.ar    1  UNL1        0.2626
     19 C          20.5524   74.0609    6.0873 C.ar    1  UNL1        0.0795
     20 C          20.1371   73.6820    4.8596 C.ar    1  UNL1        0.0869
     21 O          23.1795   73.2593    3.2669 O.2     1  UNL1       -0.2464
     22 O          22.3380   74.5079    7.4425 O.2     1  UNL1       -0.2670
     23 H          23.7697   73.9604    5.5257 H       1  UNL1        0.1734
     24 O          21.1963   71.5599   -3.3397 O.3     1  UNL1       -0.2703
     25 P          19.9671   70.5223   -3.3836 P.3     1  UNL1        0.2208
     26 O          18.9430   70.9289   -2.3963 O.2     1  UNL1       -0.5170
     27 O          20.4982   69.0448   -3.0273 O.3     1  UNL1       -0.4371
     28 O          19.3197   70.5174   -4.8572 O.3     1  UNL1       -0.2865
     29 C          19.0908   71.8818   -5.2139 C.3     1  UNL1        0.2611
     30 C          17.6042   72.0831   -5.5130 C.3     1  UNL1        0.1582
     31 C          17.1919   71.1485   -6.6559 C.3     1  UNL1        0.1625
     32 C          18.1331   71.3807   -7.8426 C.3     1  UNL1        0.1686
     33 C          19.5799   71.2294   -7.3683 C.3     1  UNL1        0.1760
     34 O          15.8466   71.4322   -7.0447 O.3     1  UNL1       -0.3801
     35 O          17.8604   70.4194   -8.8640 O.3     1  UNL1       -0.3794
     36 O          19.8638   72.2062   -6.3674 O.3     1  UNL1       -0.3263
     37 H          15.6292   70.8229   -7.7636 H       1  UNL1        0.2105
     38 H          18.4741   70.6009   -9.5899 H       1  UNL1        0.2105
     39 C          15.7759   72.5545   -3.9738 C.2     1  UNL1        0.2231
     40 C          14.9667   72.2349   -2.7428 C.3     1  UNL1        0.0946
     41 N          16.8176   71.7728   -4.3175 N.am    1  UNL1       -0.2994
     42 O          15.4896   73.5159   -4.6548 O.2     1  UNL1       -0.2751
     43 H          17.0470   71.0034   -3.7725 H       1  UNL1        0.1496
     44 C          20.5272   71.4274   -8.5535 C.3     1  UNL1        0.1693
     45 O          21.6610   72.1902   -8.1353 O.3     1  UNL1       -0.3794
     46 H          22.2307   72.2920   -8.9097 H       1  UNL1        0.2105
@<TRIPOS>BOND
     1    29    30    1
     2    29    28    1
     3    29    36    1
     4    30    31    1
     5    30    41    1
     6    31    32    1
     7    31    34    1
     8    32    33    1
     9    32    35    1
    10    33    44    1
    11    33    36    1
    12    44    45    1
    13    39    40    1
    14    39    41   am
    15    39    42    2
    16    41    43    1
    17    28    25    1
    18    34    37    1
    19    35    38    1
    20    45    46    1
    21    15    16   ar
    22    15    20   ar
    23    15     6    1
    24    16    17   ar
    25    16    21    2
    26    17    18   ar
    27    17    23    1
    28    18    19   ar
    29    18    22    2
    30    19    20   ar
    31     6     7    1
    32     6    11    1
    33     7     8    1
    34     7     9    1
    35     8    13    1
    36     9    10    1
    37     9    12    1
    38    10    11    1
    39    10     5    1
    40    12    14    1
    41     5     4    1
    42     4     1    1
    43     1     2    2
    44     1     3    1
    45     1    24    1
    46    24    25    1
    47    25    26    2
    48    25    27    1
