@<TRIPOS>MOLECULE
UDP-glaA
 43 45 0 0 0
SMALL
GASTEIGER

@<TRIPOS>ATOM
      1 P          22.9675   71.9265   -3.3941 P.3     1  UNL1        0.2189
      2 O          23.7274   72.9131   -4.4268 O.3     1  UNL1       -0.4371
      3 O          23.6432   70.6059   -3.1670 O.2     1  UNL1       -0.5170
      4 O          21.4562   71.8537   -3.9652 O.3     1  UNL1       -0.3112
      5 C          20.6310   70.7739   -3.5624 C.3     1  UNL1        0.1811
      6 O          18.8024   71.8771   -4.6639 O.3     1  UNL1       -0.3308
      7 O          17.0575   70.7257   -2.5143 O.3     1  UNL1       -0.3794
      8 O          16.5997   69.0484   -4.6150 O.3     1  UNL1       -0.3779
      9 C          18.1982   70.1540   -3.1545 C.3     1  UNL1        0.1713
     10 C          17.8456   69.7119   -4.5590 C.3     1  UNL1        0.1895
     11 C          19.2002   71.2713   -3.4141 C.3     1  UNL1        0.1764
     12 C          17.8392   71.0308   -5.3130 C.3     1  UNL1        0.2383
     13 H          17.3404   71.0289   -1.6348 H       1  UNL1        0.2105
     14 H          16.6514   68.2783   -4.0231 H       1  UNL1        0.2106
     15 O          16.0164   70.4805   -7.3987 O.2     1  UNL1       -0.2464
     16 O          19.3649   70.4555  -10.5650 O.2     1  UNL1       -0.2670
     17 N          18.2070   70.8761   -6.6914 N.ar    1  UNL1       -0.2551
     18 N          17.6851   70.4679   -8.9739 N.ar    1  UNL1       -0.2743
     19 C          17.2146   70.6001   -7.6608 C.ar    1  UNL1        0.3323
     20 C          19.5391   70.9977   -7.0712 C.ar    1  UNL1        0.0869
     21 C          19.9717   70.8694   -8.3275 C.ar    1  UNL1        0.0795
     22 C          18.9995   70.5799   -9.4001 C.ar    1  UNL1        0.2626
     23 H          16.9893   70.2687   -9.6876 H       1  UNL1        0.1734
     24 O          22.8113   72.8398   -2.0688 O.3     1  UNL1       -0.2703
     25 P          22.2236   74.3328   -1.8732 P.3     1  UNL1        0.2208
     26 O          20.7305   74.2271   -2.4859 O.3     1  UNL1       -0.4371
     27 O          23.0696   75.4128   -2.4846 O.2     1  UNL1       -0.5170
     28 O          22.0025   74.4800   -0.2816 O.3     1  UNL1       -0.2858
     29 O          21.1396   72.3802    0.3858 O.3     1  UNL1       -0.3226
     30 O          21.5775   74.3386    4.0261 O.3     1  UNL1       -0.3794
     31 O          20.5574   75.7597    1.6925 O.3     1  UNL1       -0.3775
     32 O          20.9698   71.7780    3.1871 O.3     1  UNL1       -0.3792
     33 C          21.8635   73.9645    2.6813 C.3     1  UNL1        0.1718
     34 C          20.6983   74.3447    1.7615 C.3     1  UNL1        0.1968
     35 C          22.1015   72.4529    2.6278 C.3     1  UNL1        0.1723
     36 C          20.9207   73.7942    0.3473 C.3     1  UNL1        0.2706
     37 C          22.2689   72.0108    1.1756 C.3     1  UNL1        0.1830
     38 H          22.3390   74.0774    4.5716 H       1  UNL1        0.2105
     39 H          19.8163   75.9519    1.0935 H       1  UNL1        0.2106
     40 H          20.2350   71.8291    2.5525 H       1  UNL1        0.2106
     41 O          21.4005   70.0324    0.2614 O.co2   1  UNL1       -0.5466
     42 O          23.2220   69.8370    1.6182 O.co2   1  UNL1       -0.5466
     43 C          22.3746   70.5230    1.0653 C.2     1  UNL1        0.0799
@<TRIPOS>UNITY_ATOM_ATTR
41 1
charge -1
@<TRIPOS>BOND
     1     1     4    1
     2     1    24    1
     3     1     2    1
     4     1     3    2
     5    25    28    1
     6    25    24    1
     7    25    26    1
     8    25    27    2
     9     6    11    1
    10     6    12    1
    11    29    36    1
    12    29    37    1
    13     7     9    1
    14     7    13    1
    15     8    10    1
    16     8    14    1
    17     4     5    1
    18    28    36    1
    19    30    33    1
    20    30    38    1
    21    31    34    1
    22    31    39    1
    23    32    35    1
    24    32    40    1
    25    41    43   ar
    26    15    19    2
    27    42    43   ar
    28    16    22    2
    29    17    12    1
    30    17    19   ar
    31    17    20   ar
    32    18    19   ar
    33    18    22   ar
    34    18    23    1
    35     9    10    1
    36     9    11    1
    37    10    12    1
    38    11     5    1
    39    33    34    1
    40    33    35    1
    41    34    36    1
    42    35    37    1
    43    37    43    1
    44    20    21   ar
    45    21    22   ar
@<TRIPOS>MOLECULE
UDP-glaA
 43 45 0 0 0
SMALL
GASTEIGER

@<TRIPOS>ATOM
      1 P          21.7273   73.9714   -5.5226 P.3     1  UNL1        0.2189
      2 O          20.5816   74.9084   -4.8694 O.3     1  UNL1       -0.4371
      3 O          23.0106   74.6767   -5.8512 O.2     1  UNL1       -0.5170
      4 O          20.9819   73.2532   -6.7652 O.3     1  UNL1       -0.3112
      5 C          20.2368   74.0568   -7.6644 C.3     1  UNL1        0.1811
      6 O          19.6331   71.8090   -8.2621 O.3     1  UNL1       -0.3308
      7 O          17.9268   73.0353  -10.4013 O.3     1  UNL1       -0.3794
      8 O          16.1074   72.4297   -8.4626 O.3     1  UNL1       -0.3779
      9 C          18.1976   73.5063   -9.0813 C.3     1  UNL1        0.1713
     10 C          17.4389   72.6812   -8.0633 C.3     1  UNL1        0.1895
     11 C          19.6453   73.1688   -8.7499 C.3     1  UNL1        0.1764
     12 C          18.2769   71.4158   -7.9948 C.3     1  UNL1        0.2383
     13 H          18.4630   73.5667  -11.0143 H       1  UNL1        0.2105
     14 H          15.6723   73.2904   -8.5893 H       1  UNL1        0.2106
     15 O          16.0299   70.0254   -6.9982 O.2     1  UNL1       -0.2464
     16 O          18.1638   69.0501   -3.0316 O.2     1  UNL1       -0.2670
     17 N          18.2180   70.7885   -6.7055 N.ar    1  UNL1       -0.2551
     18 N          17.0938   69.5411   -5.0234 N.ar    1  UNL1       -0.2743
     19 C          17.0414   70.1160   -6.3001 C.ar    1  UNL1        0.3323
     20 C          19.3182   70.8433   -5.8570 C.ar    1  UNL1        0.0869
     21 C          19.3526   70.2897   -4.6428 C.ar    1  UNL1        0.0795
     22 C          18.1646   69.5696   -4.1434 C.ar    1  UNL1        0.2626
     23 H          16.2589   69.0529   -4.7108 H       1  UNL1        0.1734
     24 O          21.8736   72.7739   -4.4457 O.3     1  UNL1       -0.2703
     25 P          23.0769   72.3992   -3.4336 P.3     1  UNL1        0.2208
     26 O          24.3207   73.2645   -3.9995 O.3     1  UNL1       -0.4371
     27 O          23.3480   70.9265   -3.3175 O.2     1  UNL1       -0.5170
     28 O          22.6799   73.1157   -2.0433 O.3     1  UNL1       -0.2858
     29 O          21.6275   71.4955   -0.6770 O.3     1  UNL1       -0.3226
     30 O          21.5220   74.8751    1.7409 O.3     1  UNL1       -0.3794
     31 O          20.9755   75.0801   -1.1166 O.3     1  UNL1       -0.3775
     32 O          20.9576   72.1863    2.0272 O.3     1  UNL1       -0.3792
     33 C          22.0166   73.9566    0.7704 C.3     1  UNL1        0.1718
     34 C          21.0423   73.8474   -0.4074 C.3     1  UNL1        0.1968
     35 C          22.1957   72.5869    1.4308 C.3     1  UNL1        0.1723
     36 C          21.4786   72.7378   -1.3722 C.3     1  UNL1        0.2706
     37 C          22.5890   71.5557    0.3754 C.3     1  UNL1        0.1830
     38 H          22.1676   74.9105    2.4672 H       1  UNL1        0.2105
     39 H          20.3561   74.9600   -1.8560 H       1  UNL1        0.2106
     40 H          20.3445   71.9242    1.3197 H       1  UNL1        0.2106
     41 O          21.5920   69.4382    0.5365 O.co2   1  UNL1       -0.5466
     42 O          23.5276   69.7652    1.6955 O.co2   1  UNL1       -0.5466
     43 C          22.6486   70.1772    0.9526 C.2     1  UNL1        0.0799
@<TRIPOS>UNITY_ATOM_ATTR
41 1
charge -1
@<TRIPOS>BOND
     1     1     4    1
     2     1    24    1
     3     1     2    1
     4     1     3    2
     5    25    28    1
     6    25    24    1
     7    25    26    1
     8    25    27    2
     9     6    11    1
    10     6    12    1
    11    29    36    1
    12    29    37    1
    13     7     9    1
    14     7    13    1
    15     8    10    1
    16     8    14    1
    17     4     5    1
    18    28    36    1
    19    30    33    1
    20    30    38    1
    21    31    34    1
    22    31    39    1
    23    32    35    1
    24    32    40    1
    25    41    43   ar
    26    15    19    2
    27    42    43   ar
    28    16    22    2
    29    17    12    1
    30    17    19   ar
    31    17    20   ar
    32    18    19   ar
    33    18    22   ar
    34    18    23    1
    35     9    10    1
    36     9    11    1
    37    10    12    1
    38    11     5    1
    39    33    34    1
    40    33    35    1
    41    34    36    1
    42    35    37    1
    43    37    43    1
    44    20    21   ar
    45    21    22   ar
@<TRIPOS>MOLECULE
UDP-glaA
 43 45 0 0 0
SMALL
GASTEIGER

@<TRIPOS>ATOM
      1 P          22.9646   71.6727   -2.6475 P.3     1  UNL1        0.2189
      2 O          23.7835   72.9879   -3.1136 O.3     1  UNL1       -0.4371
      3 O          23.4616   70.3799   -3.2251 O.2     1  UNL1       -0.5170
      4 O          21.4226   72.0395   -2.9689 O.3     1  UNL1       -0.3112
      5 C          20.6088   71.0599   -3.5912 C.3     1  UNL1        0.1811
      6 O          18.7099   72.0087   -4.7173 O.3     1  UNL1       -0.3308
      7 O          17.0481   70.8080   -2.5292 O.3     1  UNL1       -0.3794
      8 O          16.6975   69.0444   -4.5793 O.3     1  UNL1       -0.3779
      9 C          18.2226   70.2940   -3.1569 C.3     1  UNL1        0.1713
     10 C          17.8973   69.7894   -4.5469 C.3     1  UNL1        0.1895
     11 C          19.1487   71.4666   -3.4521 C.3     1  UNL1        0.1764
     12 C          17.8031   71.0828   -5.3383 C.3     1  UNL1        0.2383
     13 H          17.3120   71.1543   -1.6598 H       1  UNL1        0.2105
     14 H          16.8006   68.2967   -3.9657 H       1  UNL1        0.2106
     15 O          16.0094   70.3919   -7.4073 O.2     1  UNL1       -0.2464
     16 O          19.3544   70.4552  -10.5769 O.2     1  UNL1       -0.2670
     17 N          18.1779   70.9127   -6.7131 N.ar    1  UNL1       -0.2551
     18 N          17.6763   70.4234   -8.9842 N.ar    1  UNL1       -0.2743
     19 C          17.2002   70.5643   -7.6740 C.ar    1  UNL1        0.3323
     20 C          19.5022   71.0908   -7.0976 C.ar    1  UNL1        0.0869
     21 C          19.9404   70.9534   -8.3510 C.ar    1  UNL1        0.0795
     22 C          18.9835   70.5899   -9.4149 C.ar    1  UNL1        0.2626
     23 H          16.9911   70.1726   -9.6918 H       1  UNL1        0.1734
     24 O          23.0295   71.7586   -1.0339 O.3     1  UNL1       -0.2703
     25 P          22.4086   70.7942    0.1050 P.3     1  UNL1        0.2208
     26 O          23.5876   69.7172    0.3624 O.3     1  UNL1       -0.4371
     27 O          21.0831   70.1877   -0.2570 O.2     1  UNL1       -0.5170
     28 O          22.3848   71.7005    1.4399 O.3     1  UNL1       -0.2858
     29 O          21.1324   72.4461    3.3040 O.3     1  UNL1       -0.3226
     30 O          21.5763   75.9416    1.0985 O.3     1  UNL1       -0.3794
     31 O          21.0084   73.4105   -0.2347 O.3     1  UNL1       -0.3775
     32 O          20.6268   75.2560    3.6002 O.3     1  UNL1       -0.3792
     33 C          21.9100   74.6667    1.6403 C.3     1  UNL1        0.1718
     34 C          20.9067   73.6075    1.1716 C.3     1  UNL1        0.1968
     35 C          21.8982   74.7596    3.1686 C.3     1  UNL1        0.1723
     36 C          21.1547   72.2717    1.8834 C.3     1  UNL1        0.2706
     37 C          22.1134   73.3720    3.7688 C.3     1  UNL1        0.1830
     38 H          22.2346   76.5796    1.4226 H       1  UNL1        0.2105
     39 H          20.3632   72.7271   -0.4826 H       1  UNL1        0.2106
     40 H          19.9675   74.5492    3.4954 H       1  UNL1        0.2106
     41 O          20.6766   73.4579    5.6214 O.co2   1  UNL1       -0.5466
     42 O          22.9139   73.3551    6.0467 O.co2   1  UNL1       -0.5466
     43 C          21.9803   73.3934    5.2584 C.2     1  UNL1        0.0799
@<TRIPOS>UNITY_ATOM_ATTR
41 1
charge -1
@<TRIPOS>BOND
     1     1     4    1
     2     1    24    1
     3     1     2    1
     4     1     3    2
     5    25    28    1
     6    25    24    1
     7    25    26    1
     8    25    27    2
     9     6    11    1
    10     6    12    1
    11    29    36    1
    12    29    37    1
    13     7     9    1
    14     7    13    1
    15     8    10    1
    16     8    14    1
    17     4     5    1
    18    28    36    1
    19    30    33    1
    20    30    38    1
    21    31    34    1
    22    31    39    1
    23    32    35    1
    24    32    40    1
    25    41    43   ar
    26    15    19    2
    27    42    43   ar
    28    16    22    2
    29    17    12    1
    30    17    19   ar
    31    17    20   ar
    32    18    19   ar
    33    18    22   ar
    34    18    23    1
    35     9    10    1
    36     9    11    1
    37    10    12    1
    38    11     5    1
    39    33    34    1
    40    33    35    1
    41    34    36    1
    42    35    37    1
    43    37    43    1
    44    20    21   ar
    45    21    22   ar
@<TRIPOS>MOLECULE
UDP-glaA
 43 45 0 0 0
SMALL
GASTEIGER

@<TRIPOS>ATOM
      1 P          22.8607   71.8052   -2.4626 P.3     1  UNL1        0.2189
      2 O          23.6537   73.2107   -2.5776 O.3     1  UNL1       -0.4371
      3 O          23.4432   70.6819   -3.2693 O.2     1  UNL1       -0.5170
      4 O          21.3280   72.1936   -2.8025 O.3     1  UNL1       -0.3112
      5 C          20.5668   71.3077   -3.6055 C.3     1  UNL1        0.1811
      6 O          18.6425   72.1552   -4.7687 O.3     1  UNL1       -0.3308
      7 O          17.0117   70.9736   -2.5470 O.3     1  UNL1       -0.3794
      8 O          16.7282   69.1322   -4.5381 O.3     1  UNL1       -0.3779
      9 C          18.2053   70.4782   -3.1534 C.3     1  UNL1        0.1713
     10 C          17.9027   69.9172   -4.5268 C.3     1  UNL1        0.1895
     11 C          19.0935   71.6703   -3.4847 C.3     1  UNL1        0.1764
     12 C          17.7693   71.1797   -5.3613 C.3     1  UNL1        0.2383
     13 H          17.2604   71.3572   -1.6887 H       1  UNL1        0.2105
     14 H          16.8533   68.4092   -3.8996 H       1  UNL1        0.2106
     15 O          16.0085   70.3599   -7.4114 O.2     1  UNL1       -0.2464
     16 O          19.3627   70.4301  -10.5711 O.2     1  UNL1       -0.2670
     17 N          18.1553   70.9765   -6.7284 N.ar    1  UNL1       -0.2551
     18 N          17.6800   70.3949   -8.9833 N.ar    1  UNL1       -0.2743
     19 C          17.1939   70.5633   -7.6801 C.ar    1  UNL1        0.3323
     20 C          19.4745   71.1863   -7.1147 C.ar    1  UNL1        0.0869
     21 C          19.9223   71.0219   -8.3614 C.ar    1  UNL1        0.0795
     22 C          18.9826   70.5909   -9.4154 C.ar    1  UNL1        0.2626
     23 H          17.0066   70.0976   -9.6842 H       1  UNL1        0.1734
     24 O          22.8229   71.5400   -0.8677 O.3     1  UNL1       -0.2703
     25 P          21.9951   70.4634    0.0087 P.3     1  UNL1        0.2208
     26 O          23.1531   69.5146    0.6211 O.3     1  UNL1       -0.4371
     27 O          20.9339   69.7291   -0.7596 O.2     1  UNL1       -0.5170
     28 O          21.4436   71.3020    1.2722 O.3     1  UNL1       -0.2858
     29 O          21.8947   73.6096    1.0061 O.3     1  UNL1       -0.3226
     30 O          20.2550   73.4772    4.8236 O.3     1  UNL1       -0.3794
     31 O          22.1290   71.4229    3.9440 O.3     1  UNL1       -0.3775
     32 O          20.9969   75.4397    3.0268 O.3     1  UNL1       -0.3792
     33 C          20.4624   73.1240    3.4588 C.3     1  UNL1        0.1718
     34 C          21.9010   72.6417    3.2443 C.3     1  UNL1        0.1968
     35 C          20.1842   74.3484    2.5826 C.3     1  UNL1        0.1723
     36 C          22.1840   72.4231    1.7528 C.3     1  UNL1        0.2706
     37 C          20.5376   74.0316    1.1310 C.3     1  UNL1        0.1830
     38 H          19.3346   73.7781    4.9121 H       1  UNL1        0.2105
     39 H          23.0466   71.1526    3.7712 H       1  UNL1        0.2106
     40 H          21.9145   75.2734    2.7519 H       1  UNL1        0.2106
     41 O          21.2177   75.1429   -0.8199 O.co2   1  UNL1       -0.5466
     42 O          19.6635   76.1864    0.4810 O.co2   1  UNL1       -0.5466
     43 C          20.4043   75.2396    0.2593 C.2     1  UNL1        0.0799
@<TRIPOS>UNITY_ATOM_ATTR
41 1
charge -1
@<TRIPOS>BOND
     1     1     4    1
     2     1    24    1
     3     1     2    1
     4     1     3    2
     5    25    28    1
     6    25    24    1
     7    25    26    1
     8    25    27    2
     9     6    11    1
    10     6    12    1
    11    29    36    1
    12    29    37    1
    13     7     9    1
    14     7    13    1
    15     8    10    1
    16     8    14    1
    17     4     5    1
    18    28    36    1
    19    30    33    1
    20    30    38    1
    21    31    34    1
    22    31    39    1
    23    32    35    1
    24    32    40    1
    25    41    43   ar
    26    15    19    2
    27    42    43   ar
    28    16    22    2
    29    17    12    1
    30    17    19   ar
    31    17    20   ar
    32    18    19   ar
    33    18    22   ar
    34    18    23    1
    35     9    10    1
    36     9    11    1
    37    10    12    1
    38    11     5    1
    39    33    34    1
    40    33    35    1
    41    34    36    1
    42    35    37    1
    43    37    43    1
    44    20    21   ar
    45    21    22   ar
@<TRIPOS>MOLECULE
UDP-glaA
 43 45 0 0 0
SMALL
GASTEIGER

@<TRIPOS>ATOM
      1 P          22.9614   71.9695   -2.8933 P.3     1  UNL1        0.2189
      2 O          23.6182   70.5305   -3.2331 O.3     1  UNL1       -0.4371
      3 O          22.8467   72.2833   -1.4302 O.2     1  UNL1       -0.5170
      4 O          21.5733   71.9700   -3.7232 O.3     1  UNL1       -0.3112
      5 C          20.7118   70.8508   -3.6031 C.3     1  UNL1        0.1811
      6 O          18.8618   71.9312   -4.6915 O.3     1  UNL1       -0.3308
      7 O          17.1535   70.7944   -2.5050 O.3     1  UNL1       -0.3794
      8 O          16.6763   69.0910   -4.5802 O.3     1  UNL1       -0.3779
      9 C          18.2885   70.2220   -3.1545 C.3     1  UNL1        0.1713
     10 C          17.9190   69.7620   -4.5490 C.3     1  UNL1        0.1895
     11 C          19.2803   71.3419   -3.4406 C.3     1  UNL1        0.1764
     12 C          17.8946   71.0723   -5.3175 C.3     1  UNL1        0.2383
     13 H          17.4468   71.1091   -1.6330 H       1  UNL1        0.2105
     14 H          16.7406   68.3279   -3.9804 H       1  UNL1        0.2106
     15 O          16.0538   70.4393   -7.3636 O.2     1  UNL1       -0.2464
     16 O          19.3505   70.4486  -10.5839 O.2     1  UNL1       -0.2670
     17 N          18.2442   70.9040   -6.6991 N.ar    1  UNL1       -0.2551
     18 N          17.6967   70.4438   -8.9657 N.ar    1  UNL1       -0.2743
     19 C          17.2440   70.5858   -7.6473 C.ar    1  UNL1        0.3323
     20 C          19.5663   71.0541   -7.1028 C.ar    1  UNL1        0.0869
     21 C          19.9820   70.9160   -8.3637 C.ar    1  UNL1        0.0795
     22 C          19.0006   70.5830   -9.4153 C.ar    1  UNL1        0.2626
     23 H          16.9950   70.2145   -9.6644 H       1  UNL1        0.1734
     24 O          23.8864   72.9971   -3.7321 O.3     1  UNL1       -0.2703
     25 P          24.4592   74.4600   -3.3522 P.3     1  UNL1        0.2208
     26 O          25.8619   74.5292   -4.1546 O.3     1  UNL1       -0.4371
     27 O          24.5764   74.7115   -1.8761 O.2     1  UNL1       -0.5170
     28 O          23.4926   75.4922   -4.1296 O.3     1  UNL1       -0.2858
     29 O          21.3580   75.0487   -5.0494 O.3     1  UNL1       -0.3226
     30 O          22.7417   78.1110   -7.4963 O.3     1  UNL1       -0.3794
     31 O          24.5325   75.9736   -6.6415 O.3     1  UNL1       -0.3775
     32 O          20.3608   76.7603   -7.1266 O.3     1  UNL1       -0.3792
     33 C          22.5560   77.3478   -6.3075 C.3     1  UNL1        0.1718
     34 C          23.1178   75.9334   -6.4871 C.3     1  UNL1        0.1968
     35 C          21.0594   77.2807   -5.9909 C.3     1  UNL1        0.1723
     36 C          22.7708   75.0536   -5.2797 C.3     1  UNL1        0.2706
     37 C          20.8275   76.3500   -4.8025 C.3     1  UNL1        0.1830
     38 H          22.3701   78.9955   -7.3381 H       1  UNL1        0.2105
     39 H          24.8428   75.0580   -6.7421 H       1  UNL1        0.2106
     40 H          20.5365   75.8060   -7.1868 H       1  UNL1        0.2106
     41 O          19.1626   75.0323   -3.8046 O.co2   1  UNL1       -0.5466
     42 O          18.4787   76.8956   -4.9261 O.co2   1  UNL1       -0.5466
     43 C          19.3686   76.1522   -4.5389 C.2     1  UNL1        0.0799
@<TRIPOS>UNITY_ATOM_ATTR
41 1
charge -1
@<TRIPOS>BOND
     1     1     4    1
     2     1    24    1
     3     1     2    1
     4     1     3    2
     5    25    28    1
     6    25    24    1
     7    25    26    1
     8    25    27    2
     9     6    11    1
    10     6    12    1
    11    29    36    1
    12    29    37    1
    13     7     9    1
    14     7    13    1
    15     8    10    1
    16     8    14    1
    17     4     5    1
    18    28    36    1
    19    30    33    1
    20    30    38    1
    21    31    34    1
    22    31    39    1
    23    32    35    1
    24    32    40    1
    25    41    43   ar
    26    15    19    2
    27    42    43   ar
    28    16    22    2
    29    17    12    1
    30    17    19   ar
    31    17    20   ar
    32    18    19   ar
    33    18    22   ar
    34    18    23    1
    35     9    10    1
    36     9    11    1
    37    10    12    1
    38    11     5    1
    39    33    34    1
    40    33    35    1
    41    34    36    1
    42    35    37    1
    43    37    43    1
    44    20    21   ar
    45    21    22   ar
@<TRIPOS>MOLECULE
UDP-glaA
 43 45 0 0 0
SMALL
GASTEIGER

@<TRIPOS>ATOM
      1 P          22.8156   71.8139   -3.3513 P.3     1  UNL1        0.2189
      2 O          23.5630   73.2086   -3.0142 O.3     1  UNL1       -0.4371
      3 O          23.7016   70.6027   -3.3421 O.2     1  UNL1       -0.5170
      4 O          22.0454   72.1107   -4.7421 O.3     1  UNL1       -0.3112
      5 C          21.8528   73.4588   -5.1355 C.3     1  UNL1        0.1811
      6 O          21.5093   72.4671   -7.2971 O.3     1  UNL1       -0.3308
      7 O          22.2585   75.1384   -8.4347 O.3     1  UNL1       -0.3794
      8 O          19.5375   75.1572   -8.6128 O.3     1  UNL1       -0.3779
      9 C          21.5241   74.8356   -7.2487 C.3     1  UNL1        0.1713
     10 C          20.1277   74.3680   -7.6007 C.3     1  UNL1        0.1895
     11 C          22.1315   73.5852   -6.6265 C.3     1  UNL1        0.1764
     12 C          20.3768   72.9372   -8.0466 C.3     1  UNL1        0.2383
     13 H          23.1560   75.3950   -8.1623 H       1  UNL1        0.2105
     14 H          19.5139   76.0751   -8.2918 H       1  UNL1        0.2106
     15 O          18.9868   71.4846  -10.0298 O.2     1  UNL1       -0.2464
     16 O          16.0895   69.6776   -6.9348 O.2     1  UNL1       -0.2670
     17 N          19.2562   72.0792   -7.7872 N.ar    1  UNL1       -0.2551
     18 N          17.5447   70.5861   -8.4873 N.ar    1  UNL1       -0.2743
     19 C          18.6281   71.3952   -8.8542 C.ar    1  UNL1        0.3323
     20 C          18.7898   71.9222   -6.4867 C.ar    1  UNL1        0.0869
     21 C          17.7559   71.1466   -6.1531 C.ar    1  UNL1        0.0795
     22 C          17.0441   70.3985   -7.2082 C.ar    1  UNL1        0.2626
     23 H          17.0774   70.0853   -9.2383 H       1  UNL1        0.1734
     24 O          21.6129   71.7769   -2.2709 O.3     1  UNL1       -0.2703
     25 P          21.2794   70.7234   -1.0913 P.3     1  UNL1        0.2208
     26 O          22.7119   70.0340   -0.7935 O.3     1  UNL1       -0.4371
     27 O          20.1818   69.7537   -1.4237 O.2     1  UNL1       -0.5170
     28 O          20.9896   71.6395    0.2052 O.3     1  UNL1       -0.2858
     29 O          21.5331   73.9100    0.5906 O.3     1  UNL1       -0.3226
     30 O          21.7307   72.3050    4.4200 O.3     1  UNL1       -0.3794
     31 O          22.7862   70.8273    2.1379 O.3     1  UNL1       -0.3775
     32 O          21.8234   74.8262    3.2952 O.3     1  UNL1       -0.3792
     33 C          21.2775   72.4829    3.0809 C.3     1  UNL1        0.1718
     34 C          22.4123   72.2002    2.0906 C.3     1  UNL1        0.1968
     35 C          20.7819   73.9219    2.9128 C.3     1  UNL1        0.1723
     36 C          21.9859   72.5539    0.6604 C.3     1  UNL1        0.2706
     37 C          20.4249   74.1741    1.4495 C.3     1  UNL1        0.1830
     38 H          20.9824   72.4964    5.0108 H       1  UNL1        0.2105
     39 H          23.4984   70.6947    1.4898 H       1  UNL1        0.2106
     40 H          22.5025   74.8273    2.5995 H       1  UNL1        0.2106
     41 O          20.5437   76.0336    0.0242 O.co2   1  UNL1       -0.5466
     42 O          19.4088   76.2983    1.9836 O.co2   1  UNL1       -0.5466
     43 C          20.0587   75.6050    1.2144 C.2     1  UNL1        0.0799
@<TRIPOS>UNITY_ATOM_ATTR
41 1
charge -1
@<TRIPOS>BOND
     1     1     4    1
     2     1    24    1
     3     1     2    1
     4     1     3    2
     5    25    28    1
     6    25    24    1
     7    25    26    1
     8    25    27    2
     9     6    11    1
    10     6    12    1
    11    29    36    1
    12    29    37    1
    13     7     9    1
    14     7    13    1
    15     8    10    1
    16     8    14    1
    17     4     5    1
    18    28    36    1
    19    30    33    1
    20    30    38    1
    21    31    34    1
    22    31    39    1
    23    32    35    1
    24    32    40    1
    25    41    43   ar
    26    15    19    2
    27    42    43   ar
    28    16    22    2
    29    17    12    1
    30    17    19   ar
    31    17    20   ar
    32    18    19   ar
    33    18    22   ar
    34    18    23    1
    35     9    10    1
    36     9    11    1
    37    10    12    1
    38    11     5    1
    39    33    34    1
    40    33    35    1
    41    34    36    1
    42    35    37    1
    43    37    43    1
    44    20    21   ar
    45    21    22   ar
@<TRIPOS>MOLECULE
UDP-glaA
 43 45 0 0 0
SMALL
GASTEIGER

@<TRIPOS>ATOM
      1 P          21.5868   73.0848   -6.1996 P.3     1  UNL1        0.2189
      2 O          21.4270   74.6243   -5.7286 O.3     1  UNL1       -0.4371
      3 O          22.7013   72.8329   -7.1725 O.2     1  UNL1       -0.5170
      4 O          20.1060   72.6765   -6.7060 O.3     1  UNL1       -0.3112
      5 C          19.6686   71.3419   -6.5143 C.3     1  UNL1        0.1811
      6 O          17.4761   71.0117   -7.4407 O.3     1  UNL1       -0.3308
      7 O          18.8147   71.0066  -10.1239 O.3     1  UNL1       -0.3794
      8 O          17.7808   73.5257   -9.9790 O.3     1  UNL1       -0.3779
      9 C          19.1251   71.7743   -8.9611 C.3     1  UNL1        0.1713
     10 C          18.1008   72.8725   -8.7680 C.3     1  UNL1        0.1895
     11 C          18.8846   70.8959   -7.7404 C.3     1  UNL1        0.1764
     12 C          16.9232   72.1076   -8.1882 C.3     1  UNL1        0.2383
     13 H          19.4731   70.2936  -10.1847 H       1  UNL1        0.2105
     14 H          18.6055   73.8947  -10.3394 H       1  UNL1        0.2106
     15 O          14.9038   73.8824   -9.0527 O.2     1  UNL1       -0.2464
     16 O          13.9191   75.1553   -4.7343 O.2     1  UNL1       -0.2670
     17 N          16.1234   72.9146   -7.3116 N.ar    1  UNL1       -0.2551
     18 N          14.4152   74.5155   -6.9018 N.ar    1  UNL1       -0.2743
     19 C          15.1359   73.7740   -7.8473 C.ar    1  UNL1        0.3323
     20 C          16.3212   72.8499   -5.9368 C.ar    1  UNL1        0.0869
     21 C          15.6255   73.5628   -5.0483 C.ar    1  UNL1        0.0795
     22 C          14.5761   74.4853   -5.5252 C.ar    1  UNL1        0.2626
     23 H          13.7004   75.1406   -7.2642 H       1  UNL1        0.1734
     24 O          21.7234   72.2894   -4.7982 O.3     1  UNL1       -0.2703
     25 P          22.8811   72.3193   -3.6707 P.3     1  UNL1        0.2208
     26 O          24.0292   73.2399   -4.3419 O.3     1  UNL1       -0.4371
     27 O          23.3516   70.9612   -3.2348 O.2     1  UNL1       -0.5170
     28 O          22.2723   73.2267   -2.4833 O.3     1  UNL1       -0.2858
     29 O          21.4370   71.4786   -1.1247 O.3     1  UNL1       -0.3226
     30 O          21.3976   74.7092    1.4908 O.3     1  UNL1       -0.3794
     31 O          20.5699   75.0408   -1.2861 O.3     1  UNL1       -0.3775
     32 O          20.9966   71.9819    1.6666 O.3     1  UNL1       -0.3792
     33 C          21.8414   73.8740    0.4251 C.3     1  UNL1        0.1718
     34 C          20.7652   73.7765   -0.6614 C.3     1  UNL1        0.1968
     35 C          22.1505   72.4819    0.9828 C.3     1  UNL1        0.1723
     36 C          21.1611   72.7473   -1.7274 C.3     1  UNL1        0.2706
     37 C          22.4910   71.5334   -0.1646 C.3     1  UNL1        0.1830
     38 H          22.1074   74.7399    2.1547 H       1  UNL1        0.2105
     39 H          19.8890   74.9278   -1.9705 H       1  UNL1        0.2106
     40 H          20.3321   71.7259    1.0047 H       1  UNL1        0.2106
     41 O          21.4750   69.5527    0.5760 O.co2   1  UNL1       -0.5466
     42 O          23.7520   69.5736    0.4669 O.co2   1  UNL1       -0.5466
     43 C          22.6736   70.1306    0.3209 C.2     1  UNL1        0.0799
@<TRIPOS>UNITY_ATOM_ATTR
41 1
charge -1
@<TRIPOS>BOND
     1     1     4    1
     2     1    24    1
     3     1     2    1
     4     1     3    2
     5    25    28    1
     6    25    24    1
     7    25    26    1
     8    25    27    2
     9     6    11    1
    10     6    12    1
    11    29    36    1
    12    29    37    1
    13     7     9    1
    14     7    13    1
    15     8    10    1
    16     8    14    1
    17     4     5    1
    18    28    36    1
    19    30    33    1
    20    30    38    1
    21    31    34    1
    22    31    39    1
    23    32    35    1
    24    32    40    1
    25    41    43   ar
    26    15    19    2
    27    42    43   ar
    28    16    22    2
    29    17    12    1
    30    17    19   ar
    31    17    20   ar
    32    18    19   ar
    33    18    22   ar
    34    18    23    1
    35     9    10    1
    36     9    11    1
    37    10    12    1
    38    11     5    1
    39    33    34    1
    40    33    35    1
    41    34    36    1
    42    35    37    1
    43    37    43    1
    44    20    21   ar
    45    21    22   ar
@<TRIPOS>MOLECULE
UDP-glaA
 43 45 0 0 0
SMALL
GASTEIGER

@<TRIPOS>ATOM
      1 P          20.2742   73.8522   -2.5393 P.3     1  UNL1        0.2189
      2 O          20.1294   73.3221   -1.0177 O.3     1  UNL1       -0.4371
      3 O          19.9864   75.3126   -2.7309 O.2     1  UNL1       -0.5170
      4 O          19.3526   72.8359   -3.3956 O.3     1  UNL1       -0.3112
      5 C          17.9672   72.7680   -3.1033 C.3     1  UNL1        0.1811
      6 O          17.0594   70.9332   -4.3618 O.3     1  UNL1       -0.3308
      7 O          18.1363   69.1596   -2.1971 O.3     1  UNL1       -0.3794
      8 O          19.9962   68.8850   -4.1723 O.3     1  UNL1       -0.3779
      9 C          18.6905   70.3563   -2.7435 C.3     1  UNL1        0.1713
     10 C          19.2606   70.0900   -4.1207 C.3     1  UNL1        0.1895
     11 C          17.5419   71.3075   -3.0525 C.3     1  UNL1        0.1764
     12 C          18.0073   70.0462   -4.9781 C.3     1  UNL1        0.2383
     13 H          17.7496   69.3869   -1.3344 H       1  UNL1        0.2105
     14 H          20.7134   68.9518   -3.5186 H       1  UNL1        0.2106
     15 O          16.0530   70.0864   -7.0164 O.2     1  UNL1       -0.2464
     16 O          19.0469   71.7371  -10.1067 O.2     1  UNL1       -0.2670
     17 N          18.2483   70.4820   -6.3240 N.ar    1  UNL1       -0.2551
     18 N          17.5453   70.9079   -8.5540 N.ar    1  UNL1       -0.2743
     19 C          17.1985   70.4621   -7.2718 C.ar    1  UNL1        0.3323
     20 C          19.5141   70.9230   -6.6935 C.ar    1  UNL1        0.0869
     21 C          19.8288   71.3454   -7.9201 C.ar    1  UNL1        0.0795
     22 C          18.7900   71.3553   -8.9691 C.ar    1  UNL1        0.2626
     23 H          16.8064   70.9017   -9.2520 H       1  UNL1        0.1734
     24 O          21.7760   73.4039   -2.9378 O.3     1  UNL1       -0.2703
     25 P          22.8301   74.0407   -3.9847 P.3     1  UNL1        0.2208
     26 O          23.8682   72.8290   -4.2496 O.3     1  UNL1       -0.4371
     27 O          23.4714   75.3150   -3.5149 O.2     1  UNL1       -0.5170
     28 O          22.0037   74.1794   -5.3638 O.3     1  UNL1       -0.2858
     29 O          22.7319   75.9828   -6.7117 O.3     1  UNL1       -0.3226
     30 O          19.3019   74.7371   -8.7024 O.3     1  UNL1       -0.3794
     31 O          19.3620   74.8602   -5.7891 O.3     1  UNL1       -0.3775
     32 O          21.3697   76.5041   -9.1838 O.3     1  UNL1       -0.3792
     33 C          20.4938   74.6357   -7.9281 C.3     1  UNL1        0.1718
     34 C          20.3568   75.4366   -6.6288 C.3     1  UNL1        0.1968
     35 C          21.6671   75.1720   -8.7528 C.3     1  UNL1        0.1723
     36 C          21.6899   75.4755   -5.8715 C.3     1  UNL1        0.2706
     37 C          22.9276   75.2042   -7.8912 C.3     1  UNL1        0.1830
     38 H          19.4344   74.2185   -9.5142 H       1  UNL1        0.2105
     39 H          19.3179   75.3936   -4.9777 H       1  UNL1        0.2106
     40 H          21.4481   77.1006   -8.4201 H       1  UNL1        0.2106
     41 O          25.1107   76.0553   -7.7755 O.co2   1  UNL1       -0.5466
     42 O          24.0729   76.1317   -9.8038 O.co2   1  UNL1       -0.5466
     43 C          24.0698   75.8422   -8.6160 C.2     1  UNL1        0.0799
@<TRIPOS>UNITY_ATOM_ATTR
41 1
charge -1
@<TRIPOS>BOND
     1     1     4    1
     2     1    24    1
     3     1     2    1
     4     1     3    2
     5    25    28    1
     6    25    24    1
     7    25    26    1
     8    25    27    2
     9     6    11    1
    10     6    12    1
    11    29    36    1
    12    29    37    1
    13     7     9    1
    14     7    13    1
    15     8    10    1
    16     8    14    1
    17     4     5    1
    18    28    36    1
    19    30    33    1
    20    30    38    1
    21    31    34    1
    22    31    39    1
    23    32    35    1
    24    32    40    1
    25    41    43   ar
    26    15    19    2
    27    42    43   ar
    28    16    22    2
    29    17    12    1
    30    17    19   ar
    31    17    20   ar
    32    18    19   ar
    33    18    22   ar
    34    18    23    1
    35     9    10    1
    36     9    11    1
    37    10    12    1
    38    11     5    1
    39    33    34    1
    40    33    35    1
    41    34    36    1
    42    35    37    1
    43    37    43    1
    44    20    21   ar
    45    21    22   ar
@<TRIPOS>MOLECULE
UDP-glaA
 43 45 0 0 0
SMALL
GASTEIGER

@<TRIPOS>ATOM
      1 P          21.6912   71.7363   -1.3220 P.3     1  UNL1        0.2189
      2 O          22.0211   73.2299   -1.8488 O.3     1  UNL1       -0.4371
      3 O          22.7974   70.7399   -1.5106 O.2     1  UNL1       -0.5170
      4 O          20.2874   71.3718   -2.0374 O.3     1  UNL1       -0.3112
      5 C          19.8788   72.1384   -3.1576 C.3     1  UNL1        0.1811
      6 O          17.9451   72.6403   -4.4928 O.3     1  UNL1       -0.3308
      7 O          16.3646   71.1411   -2.4323 O.3     1  UNL1       -0.3794
      8 O          16.6060   69.3146   -4.4427 O.3     1  UNL1       -0.3779
      9 C          17.6788   70.8831   -2.9263 C.3     1  UNL1        0.1713
     10 C          17.6102   70.3008   -4.3223 C.3     1  UNL1        0.1895
     11 C          18.3592   72.2232   -3.1731 C.3     1  UNL1        0.1764
     12 C          17.3234   71.5323   -5.1644 C.3     1  UNL1        0.2383
     13 H          16.4597   71.5483   -1.5544 H       1  UNL1        0.2105
     14 H          16.8033   68.6154   -3.7960 H       1  UNL1        0.2106
     15 O          16.0417   70.2150   -7.3086 O.2     1  UNL1       -0.2464
     16 O          19.4879   71.1914  -10.2084 O.2     1  UNL1       -0.2670
     17 N          17.8625   71.4275   -6.4902 N.ar    1  UNL1       -0.2551
     18 N          17.7588   70.7017   -8.7510 N.ar    1  UNL1       -0.2743
     19 C          17.1391   70.7437   -7.4951 C.ar    1  UNL1        0.3323
     20 C          19.0958   71.9986   -6.7841 C.ar    1  UNL1        0.0869
     21 C          19.6730   71.9504   -7.9867 C.ar    1  UNL1        0.0795
     22 C          18.9839   71.2542   -9.0912 C.ar    1  UNL1        0.2626
     23 H          17.2571   70.2146   -9.4887 H       1  UNL1        0.1734
     24 O          21.2613   71.9818    0.2175 O.3     1  UNL1       -0.2703
     25 P          22.1499   72.0766    1.5644 P.3     1  UNL1        0.2208
     26 O          23.1807   73.2813    1.2447 O.3     1  UNL1       -0.4371
     27 O          22.8082   70.7859    1.9601 O.2     1  UNL1       -0.5170
     28 O          21.1468   72.6811    2.6744 O.3     1  UNL1       -0.2858
     29 O          19.9679   74.6703    3.1770 O.3     1  UNL1       -0.3226
     30 O          21.9170   73.8833    6.7632 O.3     1  UNL1       -0.3794
     31 O          23.2861   73.4975    4.2171 O.3     1  UNL1       -0.3775
     32 O          19.9881   75.6497    5.8750 O.3     1  UNL1       -0.3792
     33 C          21.2471   73.6165    5.5343 C.3     1  UNL1        0.1718
     34 C          22.0462   74.1833    4.3560 C.3     1  UNL1        0.1968
     35 C          19.8563   74.2553    5.5796 C.3     1  UNL1        0.1723
     36 C          21.2534   74.0537    3.0495 C.3     1  UNL1        0.2706
     37 C          19.1771   74.1030    4.2203 C.3     1  UNL1        0.1830
     38 H          21.3757   73.5099    7.4795 H       1  UNL1        0.2105
     39 H          23.7510   73.8831    3.4555 H       1  UNL1        0.2106
     40 H          20.3269   76.1023    5.0841 H       1  UNL1        0.2106
     41 O          17.9962   76.0107    3.5347 O.co2   1  UNL1       -0.5466
     42 O          16.8218   74.4096    4.6547 O.co2   1  UNL1       -0.5466
     43 C          17.8682   74.8256    4.1787 C.2     1  UNL1        0.0799
@<TRIPOS>UNITY_ATOM_ATTR
41 1
charge -1
@<TRIPOS>BOND
     1     1     4    1
     2     1    24    1
     3     1     2    1
     4     1     3    2
     5    25    28    1
     6    25    24    1
     7    25    26    1
     8    25    27    2
     9     6    11    1
    10     6    12    1
    11    29    36    1
    12    29    37    1
    13     7     9    1
    14     7    13    1
    15     8    10    1
    16     8    14    1
    17     4     5    1
    18    28    36    1
    19    30    33    1
    20    30    38    1
    21    31    34    1
    22    31    39    1
    23    32    35    1
    24    32    40    1
    25    41    43   ar
    26    15    19    2
    27    42    43   ar
    28    16    22    2
    29    17    12    1
    30    17    19   ar
    31    17    20   ar
    32    18    19   ar
    33    18    22   ar
    34    18    23    1
    35     9    10    1
    36     9    11    1
    37    10    12    1
    38    11     5    1
    39    33    34    1
    40    33    35    1
    41    34    36    1
    42    35    37    1
    43    37    43    1
    44    20    21   ar
    45    21    22   ar
@<TRIPOS>MOLECULE
UDP-glaA
 43 45 0 0 0
SMALL
GASTEIGER

@<TRIPOS>ATOM
      1 P          22.7717   71.9357   -2.4004 P.3     1  UNL1        0.2189
      2 O          23.6130   70.8544   -3.2608 O.3     1  UNL1       -0.4371
      3 O          22.5574   71.5704   -0.9607 O.2     1  UNL1       -0.5170
      4 O          21.4305   72.1699   -3.2733 O.3     1  UNL1       -0.3112
      5 C          20.6022   71.0547   -3.5549 C.3     1  UNL1        0.1811
      6 O          18.7183   72.0201   -4.6921 O.3     1  UNL1       -0.3308
      7 O          17.0329   70.8325   -2.5148 O.3     1  UNL1       -0.3794
      8 O          16.6800   69.0728   -4.5678 O.3     1  UNL1       -0.3779
      9 C          18.2069   70.3089   -3.1355 C.3     1  UNL1        0.1713
     10 C          17.8859   69.8077   -4.5277 C.3     1  UNL1        0.1895
     11 C          19.1447   71.4737   -3.4245 C.3     1  UNL1        0.1764
     12 C          17.8075   71.1021   -5.3191 C.3     1  UNL1        0.2383
     13 H          17.2945   71.1762   -1.6436 H       1  UNL1        0.2105
     14 H          16.7730   68.3241   -3.9540 H       1  UNL1        0.2106
     15 O          16.0231   70.4141   -7.3971 O.2     1  UNL1       -0.2464
     16 O          19.3853   70.4645  -10.5485 O.2     1  UNL1       -0.2670
     17 N          18.1892   70.9295   -6.6916 N.ar    1  UNL1       -0.2551
     18 N          17.6986   70.4391   -8.9649 N.ar    1  UNL1       -0.2743
     19 C          17.2157   70.5828   -7.6575 C.ar    1  UNL1        0.3323
     20 C          19.5161   71.1034   -7.0692 C.ar    1  UNL1        0.0869
     21 C          19.9606   70.9634   -8.3200 C.ar    1  UNL1        0.0795
     22 C          19.0085   70.6014   -9.3887 C.ar    1  UNL1        0.2626
     23 H          17.0165   70.1895   -9.6759 H       1  UNL1        0.1734
     24 O          23.5992   73.3057   -2.6315 O.3     1  UNL1       -0.2703
     25 P          23.5391   74.7240   -1.8586 P.3     1  UNL1        0.2208
     26 O          24.2753   74.4119   -0.4527 O.3     1  UNL1       -0.4371
     27 O          22.1557   75.2925   -1.7212 O.2     1  UNL1       -0.5170
     28 O          24.5722   75.6703   -2.6594 O.3     1  UNL1       -0.2858
     29 O          25.5691   75.3769   -4.7853 O.3     1  UNL1       -0.3226
     30 O          28.5289   77.4306   -2.7114 O.3     1  UNL1       -0.3794
     31 O          27.0077   75.3098   -1.4099 O.3     1  UNL1       -0.3775
     32 O          28.0873   76.6451   -5.3225 O.3     1  UNL1       -0.3792
     33 C          27.2162   77.0395   -3.1043 C.3     1  UNL1        0.1718
     34 C          26.9920   75.5519   -2.8127 C.3     1  UNL1        0.1968
     35 C          27.0458   77.3114   -4.6014 C.3     1  UNL1        0.1723
     36 C          25.6496   75.0821   -3.3869 C.3     1  UNL1        0.2706
     37 C          25.6979   76.7687   -5.0714 C.3     1  UNL1        0.1830
     38 H          28.6269   78.3761   -2.9161 H       1  UNL1        0.2105
     39 H          26.8528   74.3598   -1.2744 H       1  UNL1        0.2106
     40 H          27.8977   75.6916   -5.3285 H       1  UNL1        0.2106
     41 O          24.6604   75.9821   -7.0230 O.co2   1  UNL1       -0.5466
     42 O          26.1269   77.7124   -7.2520 O.co2   1  UNL1       -0.5466
     43 C          25.5433   76.8963   -6.5536 C.2     1  UNL1        0.0799
@<TRIPOS>UNITY_ATOM_ATTR
41 1
charge -1
@<TRIPOS>BOND
     1     1     4    1
     2     1    24    1
     3     1     2    1
     4     1     3    2
     5    25    28    1
     6    25    24    1
     7    25    26    1
     8    25    27    2
     9     6    11    1
    10     6    12    1
    11    29    36    1
    12    29    37    1
    13     7     9    1
    14     7    13    1
    15     8    10    1
    16     8    14    1
    17     4     5    1
    18    28    36    1
    19    30    33    1
    20    30    38    1
    21    31    34    1
    22    31    39    1
    23    32    35    1
    24    32    40    1
    25    41    43   ar
    26    15    19    2
    27    42    43   ar
    28    16    22    2
    29    17    12    1
    30    17    19   ar
    31    17    20   ar
    32    18    19   ar
    33    18    22   ar
    34    18    23    1
    35     9    10    1
    36     9    11    1
    37    10    12    1
    38    11     5    1
    39    33    34    1
    40    33    35    1
    41    34    36    1
    42    35    37    1
    43    37    43    1
    44    20    21   ar
    45    21    22   ar
@<TRIPOS>MOLECULE
UDP-glaA
 43 45 0 0 0
SMALL
GASTEIGER

@<TRIPOS>ATOM
      1 P          21.6503   73.5560   -5.7346 P.3     1  UNL1        0.2189
      2 O          21.1214   74.9277   -6.4099 O.3     1  UNL1       -0.4371
      3 O          22.3763   72.6305   -6.6665 O.2     1  UNL1       -0.5170
      4 O          20.3368   72.9431   -5.0172 O.3     1  UNL1       -0.3112
      5 C          20.3005   71.5526   -4.7444 C.3     1  UNL1        0.1811
      6 O          18.0830   72.1448   -4.0329 O.3     1  UNL1       -0.3308
      7 O          18.0619   69.5354   -2.5559 O.3     1  UNL1       -0.3794
      8 O          16.6063   68.9666   -4.7905 O.3     1  UNL1       -0.3779
      9 C          18.6495   69.8546   -3.8170 C.3     1  UNL1        0.1713
     10 C          17.5768   69.9894   -4.8771 C.3     1  UNL1        0.1895
     11 C          19.1963   71.2737   -3.7347 C.3     1  UNL1        0.1764
     12 C          17.0050   71.3641   -4.5747 C.3     1  UNL1        0.2383
     13 H          18.7809   69.4979   -1.9023 H       1  UNL1        0.2105
     14 H          17.0683   68.1159   -4.8859 H       1  UNL1        0.2106
     15 O          17.5599   70.5478   -7.2206 O.2     1  UNL1       -0.2464
     16 O          15.0087   73.9487   -8.9992 O.2     1  UNL1       -0.2670
     17 N          16.4986   72.0174   -5.7478 N.ar    1  UNL1       -0.2551
     18 N          16.2895   72.2422   -8.1046 N.ar    1  UNL1       -0.2743
     19 C          16.8379   71.5283   -7.0309 C.ar    1  UNL1        0.3323
     20 C          15.6752   73.1306   -5.6203 C.ar    1  UNL1        0.0869
     21 C          15.1599   73.8000   -6.6538 C.ar    1  UNL1        0.0795
     22 C          15.4661   73.3548   -8.0277 C.ar    1  UNL1        0.2626
     23 H          16.5205   71.9088   -9.0366 H       1  UNL1        0.1734
     24 O          22.5329   74.0835   -4.4864 O.3     1  UNL1       -0.2703
     25 P          23.5616   73.3063   -3.5116 P.3     1  UNL1        0.2208
     26 O          24.9494   74.1106   -3.7196 O.3     1  UNL1       -0.4371
     27 O          23.6565   71.8295   -3.7680 O.2     1  UNL1       -0.5170
     28 O          23.0842   73.6947   -2.0199 O.3     1  UNL1       -0.2858
     29 O          21.7905   71.9081   -1.1632 O.3     1  UNL1       -0.3226
     30 O          21.6574   74.6534    1.9552 O.3     1  UNL1       -0.3794
     31 O          21.4260   75.5429   -0.8127 O.3     1  UNL1       -0.3775
     32 O          20.8900   72.0296    1.5594 O.3     1  UNL1       -0.3792
     33 C          22.1886   73.9367    0.8442 C.3     1  UNL1        0.1718
     34 C          21.3371   74.1814   -0.4062 C.3     1  UNL1        0.1968
     35 C          22.2071   72.4433    1.1814 C.3     1  UNL1        0.1723
     36 C          21.7972   73.2831   -1.5611 C.3     1  UNL1        0.2706
     37 C          22.6392   71.6452   -0.0468 C.3     1  UNL1        0.1830
     38 H          22.2248   74.4676    2.7227 H       1  UNL1        0.2105
     39 H          20.8804   75.6471   -1.6103 H       1  UNL1        0.2106
     40 H          20.3379   71.9883    0.7603 H       1  UNL1        0.2106
     41 O          23.7529   69.5813    0.0171 O.co2   1  UNL1       -0.5466
     42 O          21.5291   69.5770    0.5188 O.co2   1  UNL1       -0.5466
     43 C          22.5472   70.1724    0.1974 C.2     1  UNL1        0.0799
@<TRIPOS>UNITY_ATOM_ATTR
41 1
charge -1
@<TRIPOS>BOND
     1     1     4    1
     2     1    24    1
     3     1     2    1
     4     1     3    2
     5    25    28    1
     6    25    24    1
     7    25    26    1
     8    25    27    2
     9     6    11    1
    10     6    12    1
    11    29    36    1
    12    29    37    1
    13     7     9    1
    14     7    13    1
    15     8    10    1
    16     8    14    1
    17     4     5    1
    18    28    36    1
    19    30    33    1
    20    30    38    1
    21    31    34    1
    22    31    39    1
    23    32    35    1
    24    32    40    1
    25    41    43   ar
    26    15    19    2
    27    42    43   ar
    28    16    22    2
    29    17    12    1
    30    17    19   ar
    31    17    20   ar
    32    18    19   ar
    33    18    22   ar
    34    18    23    1
    35     9    10    1
    36     9    11    1
    37    10    12    1
    38    11     5    1
    39    33    34    1
    40    33    35    1
    41    34    36    1
    42    35    37    1
    43    37    43    1
    44    20    21   ar
    45    21    22   ar
@<TRIPOS>MOLECULE
UDP-glaA
 43 45 0 0 0
SMALL
GASTEIGER

@<TRIPOS>ATOM
      1 P          22.1721   73.3523   -5.2141 P.3     1  UNL1        0.2189
      2 O          22.4667   74.8152   -5.8390 O.3     1  UNL1       -0.4371
      3 O          23.3777   72.6402   -4.6742 O.2     1  UNL1       -0.5170
      4 O          21.3676   72.5824   -6.3870 O.3     1  UNL1       -0.3112
      5 C          20.8366   73.3449   -7.4574 C.3     1  UNL1        0.1811
      6 O          20.0252   71.1140   -7.8308 O.3     1  UNL1       -0.3308
      7 O          18.5000   72.2569  -10.1457 O.3     1  UNL1       -0.3794
      8 O          16.5848   72.0473   -8.2160 O.3     1  UNL1       -0.3779
      9 C          18.7858   72.8419   -8.8754 C.3     1  UNL1        0.1713
     10 C          17.9252   72.2111   -7.8011 C.3     1  UNL1        0.1895
     11 C          20.1846   72.4043   -8.4609 C.3     1  UNL1        0.1764
     12 C          18.6307   70.8858   -7.5690 C.3     1  UNL1        0.2383
     13 H          19.1006   72.6632  -10.7936 H       1  UNL1        0.2105
     14 H          16.2410   72.9268   -8.4490 H       1  UNL1        0.2106
     15 O          16.2823   69.6921   -6.5514 O.2     1  UNL1       -0.2464
     16 O          18.1643   69.1103   -2.3851 O.2     1  UNL1       -0.2670
     17 N          18.4796   70.4128   -6.2226 N.ar    1  UNL1       -0.2551
     18 N          17.2208   69.4037   -4.4773 N.ar    1  UNL1       -0.2743
     19 C          17.2582   69.8295   -5.8116 C.ar    1  UNL1        0.3323
     20 C          19.5347   70.5292   -5.3245 C.ar    1  UNL1        0.0869
     21 C          19.4835   70.1178   -4.0556 C.ar    1  UNL1        0.0795
     22 C          18.2439   69.4984   -3.5466 C.ar    1  UNL1        0.2626
     23 H          16.3524   68.9817   -4.1596 H       1  UNL1        0.1734
     24 O          21.0200   73.6513   -4.1194 O.3     1  UNL1       -0.2703
     25 P          21.1196   74.1362   -2.5808 P.3     1  UNL1        0.2208
     26 O          19.5959   74.5418   -2.2201 O.3     1  UNL1       -0.4371
     27 O          22.1244   75.2268   -2.3425 O.2     1  UNL1       -0.5170
     28 O          21.3917   72.7844   -1.7427 O.3     1  UNL1       -0.2858
     29 O          22.3081   73.4386    0.3385 O.3     1  UNL1       -0.3226
     30 O          22.1550   69.3018    0.7161 O.3     1  UNL1       -0.3794
     31 O          22.9857   70.5307   -1.7950 O.3     1  UNL1       -0.3775
     32 O          22.6992   71.4474    2.3685 O.3     1  UNL1       -0.3792
     33 C          21.7646   70.6090    0.3048 C.3     1  UNL1        0.1718
     34 C          22.8530   71.2418   -0.5688 C.3     1  UNL1        0.1968
     35 C          21.5258   71.4689    1.5490 C.3     1  UNL1        0.1723
     36 C          22.5209   72.7077   -0.8737 C.3     1  UNL1        0.2706
     37 C          21.2452   72.9105    1.1303 C.3     1  UNL1        0.1830
     38 H          21.4394   68.9417    1.2672 H       1  UNL1        0.2105
     39 H          23.6769   70.9720   -2.3168 H       1  UNL1        0.2106
     40 H          23.3815   71.9956    1.9454 H       1  UNL1        0.2106
     41 O          22.3297   74.3848    2.5980 O.co2   1  UNL1       -0.5466
     42 O          20.1079   74.0156    2.9510 O.co2   1  UNL1       -0.5466
     43 C          21.1337   73.8133    2.3175 C.2     1  UNL1        0.0799
@<TRIPOS>UNITY_ATOM_ATTR
41 1
charge -1
@<TRIPOS>BOND
     1     1     4    1
     2     1    24    1
     3     1     2    1
     4     1     3    2
     5    25    28    1
     6    25    24    1
     7    25    26    1
     8    25    27    2
     9     6    11    1
    10     6    12    1
    11    29    36    1
    12    29    37    1
    13     7     9    1
    14     7    13    1
    15     8    10    1
    16     8    14    1
    17     4     5    1
    18    28    36    1
    19    30    33    1
    20    30    38    1
    21    31    34    1
    22    31    39    1
    23    32    35    1
    24    32    40    1
    25    41    43   ar
    26    15    19    2
    27    42    43   ar
    28    16    22    2
    29    17    12    1
    30    17    19   ar
    31    17    20   ar
    32    18    19   ar
    33    18    22   ar
    34    18    23    1
    35     9    10    1
    36     9    11    1
    37    10    12    1
    38    11     5    1
    39    33    34    1
    40    33    35    1
    41    34    36    1
    42    35    37    1
    43    37    43    1
    44    20    21   ar
    45    21    22   ar
@<TRIPOS>MOLECULE
UDP-glaA
 43 45 0 0 0
SMALL
GASTEIGER

@<TRIPOS>ATOM
      1 P          19.2105   70.8032   -4.2964 P.3     1  UNL1        0.2189
      2 O          19.2159   69.1855   -4.2787 O.3     1  UNL1       -0.4371
      3 O          17.9665   71.4381   -3.7474 O.2     1  UNL1       -0.5170
      4 O          19.5738   71.1775   -5.8272 O.3     1  UNL1       -0.3112
      5 C          18.6336   70.8678   -6.8418 C.3     1  UNL1        0.1811
      6 O          18.6672   73.2621   -7.0428 O.3     1  UNL1       -0.3308
      7 O          16.1045   72.9826   -8.5743 O.3     1  UNL1       -0.3794
      8 O          17.9462   73.3337  -10.5544 O.3     1  UNL1       -0.3779
      9 C          17.2474   72.1275   -8.5625 C.3     1  UNL1        0.1713
     10 C          18.3831   72.7580   -9.3406 C.3     1  UNL1        0.1895
     11 C          17.8046   72.1077   -7.1452 C.3     1  UNL1        0.1764
     12 C          18.9033   73.7927   -8.3574 C.3     1  UNL1        0.2383
     13 H          15.4183   72.5567   -8.0327 H       1  UNL1        0.2105
     14 H          17.5295   72.6288  -11.0794 H       1  UNL1        0.2106
     15 O          20.8123   71.8131   -8.9995 O.2     1  UNL1       -0.2464
     16 O          24.2662   74.8635   -8.9363 O.2     1  UNL1       -0.2670
     17 N          20.3077   74.0416   -8.5154 N.ar    1  UNL1       -0.2551
     18 N          22.5310   73.3333   -8.9671 N.ar    1  UNL1       -0.2743
     19 C          21.1820   72.9775   -8.8376 C.ar    1  UNL1        0.3323
     20 C          20.8062   75.3293   -8.3511 C.ar    1  UNL1        0.0869
     21 C          22.0950   75.6525   -8.4784 C.ar    1  UNL1        0.0795
     22 C          23.0741   74.5994   -8.8128 C.ar    1  UNL1        0.2626
     23 H          23.1780   72.5841   -9.1978 H       1  UNL1        0.1734
     24 O          20.5665   71.1788   -3.4992 O.3     1  UNL1       -0.2703
     25 P          21.5017   72.4957   -3.5595 P.3     1  UNL1        0.2208
     26 O          20.5242   73.6162   -4.1960 O.3     1  UNL1       -0.4371
     27 O          22.7910   72.3019   -4.3051 O.2     1  UNL1       -0.5170
     28 O          21.6829   72.9395   -2.0187 O.3     1  UNL1       -0.2858
     29 O          21.1412   71.2496   -0.4534 O.3     1  UNL1       -0.3226
     30 O          21.5967   74.5836    1.9871 O.3     1  UNL1       -0.3794
     31 O          20.2379   74.8041   -0.5841 O.3     1  UNL1       -0.3775
     32 O          21.2545   71.8664    2.3475 O.3     1  UNL1       -0.3792
     33 C          21.8277   73.7050    0.8894 C.3     1  UNL1        0.1718
     34 C          20.5597   73.5657    0.0403 C.3     1  UNL1        0.1968
     35 C          22.2486   72.3360    1.4308 C.3     1  UNL1        0.1723
     36 C          20.7447   72.4934   -1.0405 C.3     1  UNL1        0.2706
     37 C          22.3629   71.3411    0.2779 C.3     1  UNL1        0.1830
     38 H          22.4229   74.6397    2.4968 H       1  UNL1        0.2105
     39 H          19.4366   74.6648   -1.1164 H       1  UNL1        0.2106
     40 H          20.4745   71.5852    1.8399 H       1  UNL1        0.2106
     41 O          23.3860   69.9995    1.9079 O.co2   1  UNL1       -0.5466
     42 O          22.2626   68.9290    0.2379 O.co2   1  UNL1       -0.5466
     43 C          22.6457   69.9588    0.7739 C.2     1  UNL1        0.0799
@<TRIPOS>UNITY_ATOM_ATTR
41 1
charge -1
@<TRIPOS>BOND
     1     1     4    1
     2     1    24    1
     3     1     2    1
     4     1     3    2
     5    25    28    1
     6    25    24    1
     7    25    26    1
     8    25    27    2
     9     6    11    1
    10     6    12    1
    11    29    36    1
    12    29    37    1
    13     7     9    1
    14     7    13    1
    15     8    10    1
    16     8    14    1
    17     4     5    1
    18    28    36    1
    19    30    33    1
    20    30    38    1
    21    31    34    1
    22    31    39    1
    23    32    35    1
    24    32    40    1
    25    41    43   ar
    26    15    19    2
    27    42    43   ar
    28    16    22    2
    29    17    12    1
    30    17    19   ar
    31    17    20   ar
    32    18    19   ar
    33    18    22   ar
    34    18    23    1
    35     9    10    1
    36     9    11    1
    37    10    12    1
    38    11     5    1
    39    33    34    1
    40    33    35    1
    41    34    36    1
    42    35    37    1
    43    37    43    1
    44    20    21   ar
    45    21    22   ar
@<TRIPOS>MOLECULE
UDP-glaA
 43 45 0 0 0
SMALL
GASTEIGER

@<TRIPOS>ATOM
      1 P          22.2109   71.5242   -2.7607 P.3     1  UNL1        0.2189
      2 O          22.6391   73.0203   -2.3184 O.3     1  UNL1       -0.4371
      3 O          23.3083   70.7086   -3.3794 O.2     1  UNL1       -0.5170
      4 O          20.8993   71.7498   -3.6794 O.3     1  UNL1       -0.3112
      5 C          20.9112   72.8004   -4.6309 C.3     1  UNL1        0.1811
      6 O          20.3222   71.7453   -6.7079 O.3     1  UNL1       -0.3308
      7 O          22.9741   72.7012   -7.7300 O.3     1  UNL1       -0.3794
      8 O          21.2381   74.5188   -8.7874 O.3     1  UNL1       -0.3779
      9 C          22.0693   73.3406   -6.8300 C.3     1  UNL1        0.1713
     10 C          20.8708   73.8777   -7.5834 C.3     1  UNL1        0.1895
     11 C          21.4396   72.2654   -5.9542 C.3     1  UNL1        0.1764
     12 C          20.0549   72.6179   -7.8181 C.3     1  UNL1        0.2383
     13 H          23.7042   72.3398   -7.1990 H       1  UNL1        0.2105
     14 H          21.8447   75.2443   -8.5594 H       1  UNL1        0.2106
     15 O          18.1166   70.7452   -8.6616 O.2     1  UNL1       -0.2464
     16 O          14.6741   73.7380   -8.0051 O.2     1  UNL1       -0.2670
     17 N          18.6453   72.8806   -7.8769 N.ar    1  UNL1       -0.2551
     18 N          16.4037   72.2369   -8.3346 N.ar    1  UNL1       -0.2743
     19 C          17.7563   71.8719   -8.3159 C.ar    1  UNL1        0.3323
     20 C          18.1564   74.1272   -7.5022 C.ar    1  UNL1        0.0869
     21 C          16.8638   74.4597   -7.5251 C.ar    1  UNL1        0.0795
     22 C          15.8698   73.4637   -7.9718 C.ar    1  UNL1        0.2626
     23 H          15.7463   71.5276   -8.6474 H       1  UNL1        0.1734
     24 O          21.5979   70.9050   -1.3983 O.3     1  UNL1       -0.2703
     25 P          22.3073   70.5059   -0.0019 P.3     1  UNL1        0.2208
     26 O          23.8310   70.1835   -0.4386 O.3     1  UNL1       -0.4371
     27 O          21.6257   69.3913    0.7388 O.2     1  UNL1       -0.5170
     28 O          22.4024   71.8918    0.8193 O.3     1  UNL1       -0.2858
     29 O          21.6201   72.4315    2.9863 O.3     1  UNL1       -0.3226
     30 O          21.2230   76.0555    0.9893 O.3     1  UNL1       -0.3794
     31 O          20.5195   73.5518   -0.3305 O.3     1  UNL1       -0.3775
     32 O          21.0021   75.1675    3.5956 O.3     1  UNL1       -0.3792
     33 C          21.7779   74.7907    1.3392 C.3     1  UNL1        0.1718
     34 C          20.7687   73.6703    1.0662 C.3     1  UNL1        0.1968
     35 C          22.1527   74.8078    2.8237 C.3     1  UNL1        0.1723
     36 C          21.2891   72.3290    1.5975 C.3     1  UNL1        0.2706
     37 C          22.6167   73.4174    3.2520 C.3     1  UNL1        0.1830
     38 H          21.8937   76.7332    1.1806 H       1  UNL1        0.2105
     39 H          19.8844   72.8264   -0.4547 H       1  UNL1        0.2106
     40 H          20.3920   74.4108    3.6115 H       1  UNL1        0.2106
     41 O          24.0692   73.9073    5.0279 O.co2   1  UNL1       -0.5466
     42 O          22.1042   72.8752    5.5483 O.co2   1  UNL1       -0.5466
     43 C          22.8700   73.3545    4.7247 C.2     1  UNL1        0.0799
@<TRIPOS>UNITY_ATOM_ATTR
41 1
charge -1
@<TRIPOS>BOND
     1     1     4    1
     2     1    24    1
     3     1     2    1
     4     1     3    2
     5    25    28    1
     6    25    24    1
     7    25    26    1
     8    25    27    2
     9     6    11    1
    10     6    12    1
    11    29    36    1
    12    29    37    1
    13     7     9    1
    14     7    13    1
    15     8    10    1
    16     8    14    1
    17     4     5    1
    18    28    36    1
    19    30    33    1
    20    30    38    1
    21    31    34    1
    22    31    39    1
    23    32    35    1
    24    32    40    1
    25    41    43   ar
    26    15    19    2
    27    42    43   ar
    28    16    22    2
    29    17    12    1
    30    17    19   ar
    31    17    20   ar
    32    18    19   ar
    33    18    22   ar
    34    18    23    1
    35     9    10    1
    36     9    11    1
    37    10    12    1
    38    11     5    1
    39    33    34    1
    40    33    35    1
    41    34    36    1
    42    35    37    1
    43    37    43    1
    44    20    21   ar
    45    21    22   ar
@<TRIPOS>MOLECULE
UDP-glaA
 43 45 0 0 0
SMALL
GASTEIGER

@<TRIPOS>ATOM
      1 P          22.3572   74.7936   -6.0156 P.3     1  UNL1        0.2189
      2 O          21.2873   75.9001   -6.5138 O.3     1  UNL1       -0.4371
      3 O          23.6946   75.3426   -5.6130 O.2     1  UNL1       -0.5170
      4 O          22.3755   73.7036   -7.2101 O.3     1  UNL1       -0.3112
      5 C          21.1927   73.5071   -7.9661 C.3     1  UNL1        0.1811
      6 O          19.3480   72.2229   -7.1162 O.3     1  UNL1       -0.3308
      7 O          20.5188   69.9013   -8.6099 O.3     1  UNL1       -0.3794
      8 O          18.4962   70.7069  -10.2519 O.3     1  UNL1       -0.3779
      9 C          20.4814   71.2817   -8.9715 C.3     1  UNL1        0.1713
     10 C          19.0848   71.6732   -9.4060 C.3     1  UNL1        0.1895
     11 C          20.6629   72.1047   -7.7029 C.3     1  UNL1        0.1764
     12 C          18.3640   71.8007   -8.0748 C.3     1  UNL1        0.2383
     13 H          21.4204   69.7066   -8.3022 H       1  UNL1        0.2105
     14 H          19.0740   70.6063  -11.0279 H       1  UNL1        0.2106
     15 O          16.0461   71.6982   -6.4648 O.2     1  UNL1       -0.2464
     16 O          14.3670   75.5699   -8.3166 O.2     1  UNL1       -0.2670
     17 N          17.3055   72.7688   -8.1150 N.ar    1  UNL1       -0.2551
     18 N          15.2112   73.6260   -7.3883 N.ar    1  UNL1       -0.2743
     19 C          16.1839   72.6250   -7.2653 C.ar    1  UNL1        0.3323
     20 C          17.3848   73.8466   -8.9899 C.ar    1  UNL1        0.0869
     21 C          16.4493   74.7929   -9.0951 C.ar    1  UNL1        0.0795
     22 C          15.2456   74.7163   -8.2438 C.ar    1  UNL1        0.2626
     23 H          14.3956   73.5427   -6.7876 H       1  UNL1        0.1734
     24 O          21.5615   74.0258   -4.8355 O.3     1  UNL1       -0.2703
     25 P          21.9605   72.7289   -3.9573 P.3     1  UNL1        0.2208
     26 O          23.5179   72.4955   -4.3266 O.3     1  UNL1       -0.4371
     27 O          21.0822   71.5331   -4.1903 O.2     1  UNL1       -0.5170
     28 O          21.9771   73.2569   -2.4325 O.3     1  UNL1       -0.2858
     29 O          21.1812   71.5422   -1.0093 O.3     1  UNL1       -0.3226
     30 O          21.8262   74.6614    1.6615 O.3     1  UNL1       -0.3794
     31 O          20.6454   75.1723   -0.9558 O.3     1  UNL1       -0.3775
     32 O          21.1950   71.9774    1.8278 O.3     1  UNL1       -0.3792
     33 C          22.0309   73.8301    0.5225 C.3     1  UNL1        0.1718
     34 C          20.8059   73.8726   -0.3972 C.3     1  UNL1        0.1968
     35 C          22.2817   72.3955    0.9951 C.3     1  UNL1        0.1723
     36 C          20.9447   72.8527   -1.5342 C.3     1  UNL1        0.2706
     37 C          22.3620   71.4640   -0.2124 C.3     1  UNL1        0.1830
     38 H          22.6234   74.6019    2.2152 H       1  UNL1        0.2105
     39 H          19.8659   75.1479   -1.5361 H       1  UNL1        0.2106
     40 H          20.4212   71.8084    1.2640 H       1  UNL1        0.2106
     41 O          23.7485   69.5907    0.0557 O.co2   1  UNL1       -0.5466
     42 O          21.5560   69.3505    0.6321 O.co2   1  UNL1       -0.5466
     43 C          22.4769   70.0330    0.2071 C.2     1  UNL1        0.0799
@<TRIPOS>UNITY_ATOM_ATTR
41 1
charge -1
@<TRIPOS>BOND
     1     1     4    1
     2     1    24    1
     3     1     2    1
     4     1     3    2
     5    25    28    1
     6    25    24    1
     7    25    26    1
     8    25    27    2
     9     6    11    1
    10     6    12    1
    11    29    36    1
    12    29    37    1
    13     7     9    1
    14     7    13    1
    15     8    10    1
    16     8    14    1
    17     4     5    1
    18    28    36    1
    19    30    33    1
    20    30    38    1
    21    31    34    1
    22    31    39    1
    23    32    35    1
    24    32    40    1
    25    41    43   ar
    26    15    19    2
    27    42    43   ar
    28    16    22    2
    29    17    12    1
    30    17    19   ar
    31    17    20   ar
    32    18    19   ar
    33    18    22   ar
    34    18    23    1
    35     9    10    1
    36     9    11    1
    37    10    12    1
    38    11     5    1
    39    33    34    1
    40    33    35    1
    41    34    36    1
    42    35    37    1
    43    37    43    1
    44    20    21   ar
    45    21    22   ar
@<TRIPOS>MOLECULE
UDP-glaA
 43 45 0 0 0
SMALL
GASTEIGER

@<TRIPOS>ATOM
      1 P          23.0238   74.4371   -4.3525 P.3     1  UNL1        0.2189
      2 O          24.0525   73.1921   -4.2565 O.3     1  UNL1       -0.4371
      3 O          23.4482   75.5389   -5.2787 O.2     1  UNL1       -0.5170
      4 O          22.7869   74.8665   -2.8114 O.3     1  UNL1       -0.3112
      5 C          22.0234   74.0099   -1.9792 C.3     1  UNL1        0.1811
      6 O          23.2251   72.8937   -0.2229 O.3     1  UNL1       -0.3308
      7 O          23.0661   70.4349   -1.9318 O.3     1  UNL1       -0.3794
      8 O          21.0874   70.0176   -0.1024 O.3     1  UNL1       -0.3779
      9 C          22.1067   71.4775   -1.7579 C.3     1  UNL1        0.1713
     10 C          21.4345   71.3527   -0.4069 C.3     1  UNL1        0.1895
     11 C          22.8623   72.7924   -1.6177 C.3     1  UNL1        0.1764
     12 C          22.4969   71.9073    0.5268 C.3     1  UNL1        0.2383
     13 H          23.4973   70.5782   -2.7915 H       1  UNL1        0.2105
     14 H          20.4924   69.7025   -0.8044 H       1  UNL1        0.2106
     15 O          20.3004   73.6818    0.4840 O.2     1  UNL1       -0.2464
     16 O          20.4205   74.2307    5.0581 O.2     1  UNL1       -0.2670
     17 N          21.9332   72.5280    1.6914 N.ar    1  UNL1       -0.2551
     18 N          20.3619   73.9544    2.7617 N.ar    1  UNL1       -0.2743
     19 C          20.8307   73.4046    1.5612 C.ar    1  UNL1        0.3323
     20 C          22.4726   72.2664    2.9460 C.ar    1  UNL1        0.0869
     21 C          22.0140   72.7981    4.0813 C.ar    1  UNL1        0.0795
     22 C          20.8656   73.7246    4.0326 C.ar    1  UNL1        0.2626
     23 H          19.5702   74.5880    2.6922 H       1  UNL1        0.1734
     24 O          21.6278   73.7238   -4.7494 O.3     1  UNL1       -0.2703
     25 P          20.2772   74.3263   -5.4016 P.3     1  UNL1        0.2208
     26 O          20.7177   74.6652   -6.9205 O.3     1  UNL1       -0.4371
     27 O          19.6963   75.4899   -4.6503 O.2     1  UNL1       -0.5170
     28 O          19.2875   73.0589   -5.5366 O.3     1  UNL1       -0.2858
     29 O          18.1774   73.2210   -7.6200 O.3     1  UNL1       -0.3226
     30 O          16.5461   69.7429   -6.0322 O.3     1  UNL1       -0.3794
     31 O          17.0045   72.0721   -4.3379 O.3     1  UNL1       -0.3775
     32 O          16.4780   71.0645   -8.4568 O.3     1  UNL1       -0.3792
     33 C          17.5252   70.7418   -6.3041 C.3     1  UNL1        0.1718
     34 C          17.0687   72.0997   -5.7599 C.3     1  UNL1        0.1968
     35 C          17.7370   70.8285   -7.8180 C.3     1  UNL1        0.1723
     36 C          18.0314   73.2112   -6.1961 C.3     1  UNL1        0.2706
     37 C          18.6761   71.9892   -8.1391 C.3     1  UNL1        0.1830
     38 H          16.8751   68.9031   -6.3955 H       1  UNL1        0.2105
     39 H          16.7213   72.9529   -4.0399 H       1  UNL1        0.2106
     40 H          16.2184   71.9875   -8.2962 H       1  UNL1        0.2106
     41 O          18.2354   73.3612   -9.9904 O.co2   1  UNL1       -0.5466
     42 O          19.3620   71.4185  -10.3827 O.co2   1  UNL1       -0.5466
     43 C          18.8096   72.1929   -9.6148 C.2     1  UNL1        0.0799
@<TRIPOS>UNITY_ATOM_ATTR
41 1
charge -1
@<TRIPOS>BOND
     1     1     4    1
     2     1    24    1
     3     1     2    1
     4     1     3    2
     5    25    28    1
     6    25    24    1
     7    25    26    1
     8    25    27    2
     9     6    11    1
    10     6    12    1
    11    29    36    1
    12    29    37    1
    13     7     9    1
    14     7    13    1
    15     8    10    1
    16     8    14    1
    17     4     5    1
    18    28    36    1
    19    30    33    1
    20    30    38    1
    21    31    34    1
    22    31    39    1
    23    32    35    1
    24    32    40    1
    25    41    43   ar
    26    15    19    2
    27    42    43   ar
    28    16    22    2
    29    17    12    1
    30    17    19   ar
    31    17    20   ar
    32    18    19   ar
    33    18    22   ar
    34    18    23    1
    35     9    10    1
    36     9    11    1
    37    10    12    1
    38    11     5    1
    39    33    34    1
    40    33    35    1
    41    34    36    1
    42    35    37    1
    43    37    43    1
    44    20    21   ar
    45    21    22   ar
@<TRIPOS>MOLECULE
UDP-glaA
 43 45 0 0 0
SMALL
GASTEIGER

@<TRIPOS>ATOM
      1 P          22.6356   71.6353   -2.8814 P.3     1  UNL1        0.2189
      2 O          21.6459   72.7746   -2.2984 O.3     1  UNL1       -0.4371
      3 O          23.7412   72.1457   -3.7584 O.2     1  UNL1       -0.5170
      4 O          21.6358   70.5625   -3.5635 O.3     1  UNL1       -0.3112
      5 C          20.4254   71.0313   -4.1329 C.3     1  UNL1        0.1811
      6 O          18.1884   71.5605   -3.4330 O.3     1  UNL1       -0.3308
      7 O          18.0292   68.7342   -2.4441 O.3     1  UNL1       -0.3794
      8 O          16.6790   68.6141   -4.8101 O.3     1  UNL1       -0.3779
      9 C          18.6890   69.2509   -3.5997 C.3     1  UNL1        0.1713
     10 C          17.6764   69.6045   -4.6684 C.3     1  UNL1        0.1895
     11 C          19.2639   70.6151   -3.2416 C.3     1  UNL1        0.1764
     12 C          17.1220   70.9223   -4.1546 C.3     1  UNL1        0.2383
     13 H          18.7122   68.5592   -1.7744 H       1  UNL1        0.2105
     14 H          17.1253   67.7790   -5.0328 H       1  UNL1        0.2106
     15 O          14.9354   72.7008   -3.9777 O.2     1  UNL1       -0.2464
     16 O          15.5652   74.1932   -8.2922 O.2     1  UNL1       -0.2670
     17 N          16.6928   71.7875   -5.2159 N.ar    1  UNL1       -0.2551
     18 N          15.2501   73.4424   -6.1265 N.ar    1  UNL1       -0.2743
     19 C          15.5820   72.6423   -5.0252 C.ar    1  UNL1        0.3323
     20 C          17.3701   71.7836   -6.4303 C.ar    1  UNL1        0.0869
     21 C          17.0417   72.5528   -7.4706 C.ar    1  UNL1        0.0795
     22 C          15.8933   73.4733   -7.3541 C.ar    1  UNL1        0.2626
     23 H          14.4544   74.0645   -6.0123 H       1  UNL1        0.1734
     24 O          23.1334   70.8701   -1.5466 O.3     1  UNL1       -0.2703
     25 P          22.3976   70.6242   -0.1286 P.3     1  UNL1        0.2208
     26 O          23.1659   69.3324    0.4690 O.3     1  UNL1       -0.4371
     27 O          20.9070   70.4685   -0.2270 O.2     1  UNL1       -0.5170
     28 O          22.8797   71.8522    0.8006 O.3     1  UNL1       -0.2858
     29 O          21.4920   72.9947    2.3396 O.3     1  UNL1       -0.3226
     30 O          24.4036   75.8435    1.5109 O.3     1  UNL1       -0.3794
     31 O          23.3091   74.1802   -0.6202 O.3     1  UNL1       -0.3775
     32 O          22.3102   75.5755    3.2930 O.3     1  UNL1       -0.3792
     33 C          23.8354   74.5541    1.7228 C.3     1  UNL1        0.1718
     34 C          22.7448   74.2733    0.6836 C.3     1  UNL1        0.1968
     35 C          23.2415   74.5004    3.1331 C.3     1  UNL1        0.1723
     36 C          22.0111   72.9656    1.0059 C.3     1  UNL1        0.2706
     37 C          22.5035   73.1778    3.3291 C.3     1  UNL1        0.1830
     38 H          25.0853   75.9791    2.1910 H       1  UNL1        0.2105
     39 H          22.5847   73.9929   -1.2407 H       1  UNL1        0.2106
     40 H          21.5049   75.3638    2.7911 H       1  UNL1        0.2106
     41 O          20.5071   73.5260    4.5110 O.co2   1  UNL1       -0.5466
     42 O          22.3059   72.7932    5.7045 O.co2   1  UNL1       -0.5466
     43 C          21.7973   73.1353    4.6468 C.2     1  UNL1        0.0799
@<TRIPOS>UNITY_ATOM_ATTR
41 1
charge -1
@<TRIPOS>BOND
     1     1     4    1
     2     1    24    1
     3     1     2    1
     4     1     3    2
     5    25    28    1
     6    25    24    1
     7    25    26    1
     8    25    27    2
     9     6    11    1
    10     6    12    1
    11    29    36    1
    12    29    37    1
    13     7     9    1
    14     7    13    1
    15     8    10    1
    16     8    14    1
    17     4     5    1
    18    28    36    1
    19    30    33    1
    20    30    38    1
    21    31    34    1
    22    31    39    1
    23    32    35    1
    24    32    40    1
    25    41    43   ar
    26    15    19    2
    27    42    43   ar
    28    16    22    2
    29    17    12    1
    30    17    19   ar
    31    17    20   ar
    32    18    19   ar
    33    18    22   ar
    34    18    23    1
    35     9    10    1
    36     9    11    1
    37    10    12    1
    38    11     5    1
    39    33    34    1
    40    33    35    1
    41    34    36    1
    42    35    37    1
    43    37    43    1
    44    20    21   ar
    45    21    22   ar
@<TRIPOS>MOLECULE
UDP-glaA
 43 45 0 0 0
SMALL
GASTEIGER

@<TRIPOS>ATOM
      1 P          22.7697   71.6701   -2.8644 P.3     1  UNL1        0.2189
      2 O          23.7523   72.9456   -3.0229 O.3     1  UNL1       -0.4371
      3 O          23.3600   70.3591   -3.2944 O.2     1  UNL1       -0.5170
      4 O          21.4203   72.1196   -3.6341 O.3     1  UNL1       -0.3112
      5 C          20.6109   71.1167   -4.2241 C.3     1  UNL1        0.1811
      6 O          18.4802   71.7575   -3.3164 O.3     1  UNL1       -0.3308
      7 O          18.2152   68.9083   -2.4202 O.3     1  UNL1       -0.3794
      8 O          16.6679   68.9729   -4.6646 O.3     1  UNL1       -0.3779
      9 C          18.8097   69.4297   -3.6086 C.3     1  UNL1        0.1713
     10 C          17.7376   69.8911   -4.5732 C.3     1  UNL1        0.1895
     11 C          19.5023   70.7385   -3.2522 C.3     1  UNL1        0.1764
     12 C          17.3172   71.2189   -3.9666 C.3     1  UNL1        0.2383
     13 H          18.9383   68.6626   -1.8182 H       1  UNL1        0.2105
     14 H          17.0373   68.1211   -4.9547 H       1  UNL1        0.2106
     15 O          14.8013   72.5004   -3.9083 O.2     1  UNL1       -0.2464
     16 O          15.6694   74.7838   -7.8161 O.2     1  UNL1       -0.2670
     17 N          16.8601   72.1531   -4.9553 N.ar    1  UNL1       -0.2551
     18 N          15.2350   73.6362   -5.8546 N.ar    1  UNL1       -0.2743
     19 C          15.5789   72.7401   -4.8339 C.ar    1  UNL1        0.3323
     20 C          17.6781   72.4793   -6.0313 C.ar    1  UNL1        0.0869
     21 C          17.3361   73.3360   -6.9962 C.ar    1  UNL1        0.0795
     22 C          16.0144   73.9918   -6.9445 C.ar    1  UNL1        0.2626
     23 H          14.3181   74.0698   -5.7882 H       1  UNL1        0.1734
     24 O          22.3386   71.7362   -1.3072 O.3     1  UNL1       -0.2703
     25 P          21.9328   70.5658   -0.2688 P.3     1  UNL1        0.2208
     26 O          23.3611   69.9443    0.1666 O.3     1  UNL1       -0.4371
     27 O          20.9622   69.5616   -0.8213 O.2     1  UNL1       -0.5170
     28 O          21.4100   71.3464    1.0432 O.3     1  UNL1       -0.2858
     29 O          22.0064   73.6350    0.9665 O.3     1  UNL1       -0.3226
     30 O          20.3133   73.3024    4.7483 O.3     1  UNL1       -0.3794
     31 O          22.0676   71.2111    3.7212 O.3     1  UNL1       -0.3775
     32 O          21.1980   75.3512    3.1206 O.3     1  UNL1       -0.3792
     33 C          20.5157   73.0465    3.3613 C.3     1  UNL1        0.1718
     34 C          21.9244   72.4935    3.1199 C.3     1  UNL1        0.1968
     35 C          20.3250   74.3518    2.5839 C.3     1  UNL1        0.1723
     36 C          22.2122   72.3771    1.6179 C.3     1  UNL1        0.2706
     37 C          20.6765   74.1300    1.1145 C.3     1  UNL1        0.1830
     38 H          19.4122   73.6524    4.8536 H       1  UNL1        0.2105
     39 H          22.9688   70.8984    3.5344 H       1  UNL1        0.2106
     40 H          22.1069   75.1501    2.8403 H       1  UNL1        0.2106
     41 O          21.4953   75.3715   -0.6999 O.co2   1  UNL1       -0.5466
     42 O          19.9091   76.3617    0.6042 O.co2   1  UNL1       -0.5466
     43 C          20.6293   75.4095    0.3414 C.2     1  UNL1        0.0799
@<TRIPOS>UNITY_ATOM_ATTR
41 1
charge -1
@<TRIPOS>BOND
     1     1     4    1
     2     1    24    1
     3     1     2    1
     4     1     3    2
     5    25    28    1
     6    25    24    1
     7    25    26    1
     8    25    27    2
     9     6    11    1
    10     6    12    1
    11    29    36    1
    12    29    37    1
    13     7     9    1
    14     7    13    1
    15     8    10    1
    16     8    14    1
    17     4     5    1
    18    28    36    1
    19    30    33    1
    20    30    38    1
    21    31    34    1
    22    31    39    1
    23    32    35    1
    24    32    40    1
    25    41    43   ar
    26    15    19    2
    27    42    43   ar
    28    16    22    2
    29    17    12    1
    30    17    19   ar
    31    17    20   ar
    32    18    19   ar
    33    18    22   ar
    34    18    23    1
    35     9    10    1
    36     9    11    1
    37    10    12    1
    38    11     5    1
    39    33    34    1
    40    33    35    1
    41    34    36    1
    42    35    37    1
    43    37    43    1
    44    20    21   ar
    45    21    22   ar
@<TRIPOS>MOLECULE
UDP-glaA
 43 45 0 0 0
SMALL
GASTEIGER

@<TRIPOS>ATOM
      1 P          18.5147   69.8267   -3.1239 P.3     1  UNL1        0.2189
      2 O          19.0340   69.6687   -4.6480 O.3     1  UNL1       -0.4371
      3 O          18.5114   68.5585   -2.3216 O.2     1  UNL1       -0.5170
      4 O          17.0847   70.5671   -3.2743 O.3     1  UNL1       -0.3112
      5 C          16.6749   70.9938   -4.5624 C.3     1  UNL1        0.1811
      6 O          18.0435   72.6673   -5.6114 O.3     1  UNL1       -0.3308
      7 O          15.8807   74.6171   -4.8959 O.3     1  UNL1       -0.3794
      8 O          15.3978   74.1345   -7.5359 O.3     1  UNL1       -0.3779
      9 C          15.7691   73.2528   -5.3008 C.3     1  UNL1        0.1713
     10 C          16.0361   73.1221   -6.7854 C.3     1  UNL1        0.1895
     11 C          16.9391   72.4866   -4.6978 C.3     1  UNL1        0.1764
     12 C          17.5511   73.2195   -6.8435 C.3     1  UNL1        0.2383
     13 H          15.7408   74.6463   -3.9340 H       1  UNL1        0.2105
     14 H          14.4433   74.0720   -7.3591 H       1  UNL1        0.2106
     15 O          17.9630   74.2743   -9.4306 O.2     1  UNL1       -0.2464
     16 O          19.6867   70.2907  -10.9792 O.2     1  UNL1       -0.2670
     17 N          18.1063   72.4807   -7.9414 N.ar    1  UNL1       -0.2551
     18 N          18.8206   72.2898  -10.2002 N.ar    1  UNL1       -0.2743
     19 C          18.2708   73.1034   -9.2007 C.ar    1  UNL1        0.3323
     20 C          18.4813   71.1535   -7.7646 C.ar    1  UNL1        0.0869
     21 C          19.0045   70.3912   -8.7274 C.ar    1  UNL1        0.0795
     22 C          19.2085   70.9650  -10.0723 C.ar    1  UNL1        0.2626
     23 H          18.9474   72.7163  -11.1140 H       1  UNL1        0.1734
     24 O          19.4675   70.9934   -2.5356 O.3     1  UNL1       -0.2703
     25 P          21.0732   71.0658   -2.3653 P.3     1  UNL1        0.2208
     26 O          21.5409   71.9563   -3.6320 O.3     1  UNL1       -0.4371
     27 O          21.7435   69.7252   -2.2686 O.2     1  UNL1       -0.5170
     28 O          21.3062   72.0214   -1.0860 O.3     1  UNL1       -0.2858
     29 O          23.1459   73.1971   -0.1736 O.3     1  UNL1       -0.3226
     30 O          21.3197   71.6603    3.2298 O.3     1  UNL1       -0.3794
     31 O          21.5623   70.0385    0.8180 O.3     1  UNL1       -0.3775
     32 O          23.3595   73.4394    2.6785 O.3     1  UNL1       -0.3792
     33 C          21.4297   72.2023    1.9166 C.3     1  UNL1        0.1718
     34 C          22.2500   71.2686    1.0201 C.3     1  UNL1        0.1968
     35 C          22.1053   73.5737    2.0019 C.3     1  UNL1        0.1723
     36 C          22.5193   71.9211   -0.3416 C.3     1  UNL1        0.2706
     37 C          22.3611   74.1082    0.5944 C.3     1  UNL1        0.1830
     38 H          20.7963   72.2839    3.7616 H       1  UNL1        0.2105
     39 H          22.1137   69.4858    0.2389 H       1  UNL1        0.2106
     40 H          23.9899   73.0072    2.0776 H       1  UNL1        0.2106
     41 O          23.9807   75.4616   -0.4299 O.co2   1  UNL1       -0.5466
     42 O          23.0268   76.2518    1.4839 O.co2   1  UNL1       -0.5466
     43 C          23.1364   75.3868    0.6271 C.2     1  UNL1        0.0799
@<TRIPOS>UNITY_ATOM_ATTR
41 1
charge -1
@<TRIPOS>BOND
     1     1     4    1
     2     1    24    1
     3     1     2    1
     4     1     3    2
     5    25    28    1
     6    25    24    1
     7    25    26    1
     8    25    27    2
     9     6    11    1
    10     6    12    1
    11    29    36    1
    12    29    37    1
    13     7     9    1
    14     7    13    1
    15     8    10    1
    16     8    14    1
    17     4     5    1
    18    28    36    1
    19    30    33    1
    20    30    38    1
    21    31    34    1
    22    31    39    1
    23    32    35    1
    24    32    40    1
    25    41    43   ar
    26    15    19    2
    27    42    43   ar
    28    16    22    2
    29    17    12    1
    30    17    19   ar
    31    17    20   ar
    32    18    19   ar
    33    18    22   ar
    34    18    23    1
    35     9    10    1
    36     9    11    1
    37    10    12    1
    38    11     5    1
    39    33    34    1
    40    33    35    1
    41    34    36    1
    42    35    37    1
    43    37    43    1
    44    20    21   ar
    45    21    22   ar
@<TRIPOS>MOLECULE
UDP-glaA
 43 45 0 0 0
SMALL
GASTEIGER

@<TRIPOS>ATOM
      1 P          21.9710   73.1013   -5.0327 P.3     1  UNL1        0.2189
      2 O          21.1142   74.4694   -5.1406 O.3     1  UNL1       -0.4371
      3 O          23.4602   73.2823   -5.0732 O.2     1  UNL1       -0.5170
      4 O          21.3459   72.1578   -6.1880 O.3     1  UNL1       -0.3112
      5 C          21.3008   72.6522   -7.5157 C.3     1  UNL1        0.1811
      6 O          19.7037   70.8577   -7.4573 O.3     1  UNL1       -0.3308
      7 O          18.9353   71.7007  -10.2304 O.3     1  UNL1       -0.3794
      8 O          16.9533   72.7892   -8.7063 O.3     1  UNL1       -0.3779
      9 C          19.3322   72.5044   -9.1194 C.3     1  UNL1        0.1713
     10 C          18.2135   72.5834   -8.1021 C.3     1  UNL1        0.1895
     11 C          20.4078   71.7468   -8.3521 C.3     1  UNL1        0.1764
     12 C          18.3173   71.2333   -7.4132 C.3     1  UNL1        0.2383
     13 H          19.6948   71.6468  -10.8351 H       1  UNL1        0.2105
     14 H          17.0043   73.6168   -9.2150 H       1  UNL1        0.2106
     15 O          16.6732   69.2933   -6.1850 O.2     1  UNL1       -0.2464
     16 O          16.7384   71.5252   -2.1535 O.2     1  UNL1       -0.2670
     17 N          17.8898   71.2821   -6.0442 N.ar    1  UNL1       -0.2551
     18 N          16.7063   70.4062   -4.1784 N.ar    1  UNL1       -0.2743
     19 C          17.0639   70.2578   -5.5250 C.ar    1  UNL1        0.3323
     20 C          18.2885   72.3370   -5.2307 C.ar    1  UNL1        0.0869
     21 C          17.9395   72.4640   -3.9486 C.ar    1  UNL1        0.0795
     22 C          17.0776   71.4375   -3.3296 C.ar    1  UNL1        0.2626
     23 H          16.1124   69.6819   -3.7839 H       1  UNL1        0.1734
     24 O          21.4109   72.4293   -3.6726 O.3     1  UNL1       -0.2703
     25 P          21.6239   70.9510   -3.0546 P.3     1  UNL1        0.2208
     26 O          23.2031   70.6802   -3.2761 O.3     1  UNL1       -0.4371
     27 O          20.7261   69.9015   -3.6447 O.2     1  UNL1       -0.5170
     28 O          21.4627   71.1469   -1.4610 O.3     1  UNL1       -0.2858
     29 O          23.0584   72.7355   -0.7331 O.3     1  UNL1       -0.3226
     30 O          21.2008   71.6713    2.8301 O.3     1  UNL1       -0.3794
     31 O          21.8343   69.6478    0.8276 O.3     1  UNL1       -0.3775
     32 O          23.0244   73.5774    2.0107 O.3     1  UNL1       -0.3792
     33 C          21.3365   71.9468    1.4387 C.3     1  UNL1        0.1718
     34 C          22.3372   70.9794    0.7975 C.3     1  UNL1        0.1968
     35 C          21.8176   73.3899    1.2642 C.3     1  UNL1        0.1723
     36 C          22.6195   71.3751   -0.6572 C.3     1  UNL1        0.2706
     37 C          22.1054   73.6601   -0.2110 C.3     1  UNL1        0.1830
     38 H          20.5616   72.3074    3.1941 H       1  UNL1        0.2105
     39 H          22.4954   69.0749    0.4038 H       1  UNL1        0.2106
     40 H          23.7493   73.1282    1.5439 H       1  UNL1        0.2106
     41 O          22.1635   75.9092    0.4536 O.co2   1  UNL1       -0.5466
     42 O          23.5578   75.2911   -1.2407 O.co2   1  UNL1       -0.5466
     43 C          22.7011   75.0171   -0.4128 C.2     1  UNL1        0.0799
@<TRIPOS>UNITY_ATOM_ATTR
41 1
charge -1
@<TRIPOS>BOND
     1     1     4    1
     2     1    24    1
     3     1     2    1
     4     1     3    2
     5    25    28    1
     6    25    24    1
     7    25    26    1
     8    25    27    2
     9     6    11    1
    10     6    12    1
    11    29    36    1
    12    29    37    1
    13     7     9    1
    14     7    13    1
    15     8    10    1
    16     8    14    1
    17     4     5    1
    18    28    36    1
    19    30    33    1
    20    30    38    1
    21    31    34    1
    22    31    39    1
    23    32    35    1
    24    32    40    1
    25    41    43   ar
    26    15    19    2
    27    42    43   ar
    28    16    22    2
    29    17    12    1
    30    17    19   ar
    31    17    20   ar
    32    18    19   ar
    33    18    22   ar
    34    18    23    1
    35     9    10    1
    36     9    11    1
    37    10    12    1
    38    11     5    1
    39    33    34    1
    40    33    35    1
    41    34    36    1
    42    35    37    1
    43    37    43    1
    44    20    21   ar
    45    21    22   ar
