@<TRIPOS>MOLECULE
UD2
 46 48 0 0 0
SMALL
GASTEIGER

@<TRIPOS>ATOM
      1 P          22.0264   70.8544   -2.7053 P.3     1  UNL1        0.2189
      2 O          21.4094   69.3675   -2.7069 O.3     1  UNL1       -0.4371
      3 O          23.3189   70.8535   -3.4252 O.2     1  UNL1       -0.5170
      4 O          21.0043   71.8601   -3.4385 O.3     1  UNL1       -0.3112
      5 C          19.9860   72.5789   -2.7400 C.3     1  UNL1        0.1811
      6 C          17.8373   71.4287   -5.3850 C.3     1  UNL1        0.2383
      7 C          17.9957   70.2024   -4.4506 C.3     1  UNL1        0.1895
      8 O          16.8238   69.3853   -4.4781 O.3     1  UNL1       -0.3779
      9 C          18.1711   70.8701   -3.0646 C.3     1  UNL1        0.1713
     10 C          18.6291   72.3040   -3.3928 C.3     1  UNL1        0.1764
     11 O          18.7456   72.3996   -4.8213 O.3     1  UNL1       -0.3308
     12 O          16.9287   70.8903   -2.3598 O.3     1  UNL1       -0.3794
     13 H          16.8746   68.6050   -3.9097 H       1  UNL1        0.2106
     14 H          16.5641   70.0135   -2.1786 H       1  UNL1        0.2105
     15 N          18.2302   71.0880   -6.7542 N.ar    1  UNL1       -0.2551
     16 C          17.2915   70.7241   -7.6459 C.ar    1  UNL1        0.3323
     17 N          17.6241   70.4056   -8.9109 N.ar    1  UNL1       -0.2743
     18 C          18.9129   70.4490   -9.3053 C.ar    1  UNL1        0.2626
     19 C          19.9113   70.8313   -8.3773 C.ar    1  UNL1        0.0795
     20 C          19.5489   71.1495   -7.1168 C.ar    1  UNL1        0.0869
     21 O          16.1254   70.6808   -7.3043 O.2     1  UNL1       -0.2464
     22 O          19.2152   70.1613  -10.4500 O.2     1  UNL1       -0.2670
     23 H          16.9348   70.1441   -9.5408 H       1  UNL1        0.1734
     24 O          22.2578   71.3381   -1.1869 O.3     1  UNL1       -0.2703
     25 P          22.5901   70.5745    0.1913 P.3     1  UNL1        0.2208
     26 O          21.4109   69.5289    0.5228 O.3     1  UNL1       -0.4371
     27 O          23.8706   69.8462    0.0557 O.2     1  UNL1       -0.5170
     28 O          22.7070   71.6485    1.3852 O.3     1  UNL1       -0.2865
     29 C          21.8052   72.7465    1.5355 C.3     1  UNL1        0.2611
     30 C          22.5163   74.0477    1.1559 C.3     1  UNL1        0.1582
     31 C          23.6904   74.2757    2.1129 C.3     1  UNL1        0.1625
     32 C          23.1657   74.2993    3.5511 C.3     1  UNL1        0.1686
     33 C          22.4295   72.9880    3.8385 C.3     1  UNL1        0.1760
     34 O          24.3155   75.5255    1.8120 O.3     1  UNL1       -0.3801
     35 O          22.2669   75.3979    3.7137 O.3     1  UNL1       -0.3794
     36 O          21.3696   72.8220    2.8945 O.3     1  UNL1       -0.3263
     37 H          25.0695   75.7346    2.3802 H       1  UNL1        0.2105
     38 H          21.8943   75.4738    4.6033 H       1  UNL1        0.2105
     39 C          22.5604   74.7948   -1.1630 C.2     1  UNL1        0.2231
     40 C          23.0739   74.6945   -2.5754 C.3     1  UNL1        0.0946
     41 N          23.0161   73.9493   -0.2178 N.am    1  UNL1       -0.2994
     42 O          21.7358   75.6372   -0.8756 O.2     1  UNL1       -0.2751
     43 H          23.6747   73.2750   -0.4473 H       1  UNL1        0.1496
     44 C          21.8507   73.0281    5.2540 C.3     1  UNL1        0.1693
     45 O          20.4575   73.3402    5.1911 O.3     1  UNL1       -0.3794
     46 H          20.0239   73.3825    6.0544 H       1  UNL1        0.2105
@<TRIPOS>BOND
     1    29    30    1
     2    30    41    1
     3    30    31    1
     4    31    34    1
     5    31    32    1
     6    32    35    1
     7    32    33    1
     8    33    36    1
     9    33    44    1
    10    39    40    1
    11    39    42    2
    12    39    41   am
    13    41    43    1
    14    29    28    1
    15    34    37    1
    16    35    38    1
    17    29    36    1
    18    44    45    1
    19    45    46    1
    20    15     6    1
    21    15    16   ar
    22    16    21    2
    23    16    17   ar
    24    17    23    1
    25    17    18   ar
    26    18    19   ar
    27    19    20   ar
    28    15    20   ar
    29    18    22    2
    30     6     7    1
    31     6    11    1
    32     7     9    1
    33     7     8    1
    34     8    13    1
    35     9    10    1
    36     9    12    1
    37    10     5    1
    38    10    11    1
    39    12    14    1
    40     5     4    1
    41     4     1    1
    42     1     2    1
    43     1    24    1
    44     1     3    2
    45    24    25    1
    46    28    25    1
    47    25    26    1
    48    25    27    2
@<TRIPOS>MOLECULE
UD2
 46 48 0 0 0
SMALL
GASTEIGER

@<TRIPOS>ATOM
      1 P          22.9896   72.2028   -3.2439 P.3     1  UNL1        0.2189
      2 O          23.4418   70.6579   -3.2608 O.3     1  UNL1       -0.4371
      3 O          23.7058   72.9388   -4.3090 O.2     1  UNL1       -0.5170
      4 O          21.4023   72.2999   -3.4985 O.3     1  UNL1       -0.3112
      5 C          20.4369   71.7289   -2.6134 C.3     1  UNL1        0.1811
      6 C          18.0777   71.2998   -5.2942 C.3     1  UNL1        0.2383
      7 C          17.9760   69.9898   -4.4722 C.3     1  UNL1        0.1895
      8 O          16.6567   69.4455   -4.5411 O.3     1  UNL1       -0.3779
      9 C          18.2975   70.4794   -3.0389 C.3     1  UNL1        0.1713
     10 C          19.0490   71.8070   -3.2541 C.3     1  UNL1        0.1764
     11 O          19.1753   72.0021   -4.6717 O.3     1  UNL1       -0.3308
     12 O          17.0919   70.6999   -2.3049 O.3     1  UNL1       -0.3794
     13 H          16.5430   68.6248   -4.0429 H       1  UNL1        0.2106
     14 H          16.5497   69.9078   -2.1906 H       1  UNL1        0.2105
     15 N          18.3814   71.0066   -6.6966 N.ar    1  UNL1       -0.2551
     16 C          17.3771   70.7936   -7.5655 C.ar    1  UNL1        0.3323
     17 N          17.6270   70.5218   -8.8601 N.ar    1  UNL1       -0.2743
     18 C          18.8976   70.4607   -9.3078 C.ar    1  UNL1        0.2626
     19 C          19.9644   70.6839   -8.4043 C.ar    1  UNL1        0.0795
     20 C          19.6846   70.9585   -7.1129 C.ar    1  UNL1        0.0869
     21 O          16.2266   70.8457   -7.1758 O.2     1  UNL1       -0.2464
     22 O          19.1251   70.2153  -10.4793 O.2     1  UNL1       -0.2670
     23 H          16.8912   70.3696   -9.4729 H       1  UNL1        0.1734
     24 O          23.3434   72.8502   -1.8125 O.3     1  UNL1       -0.2703
     25 P          23.1244   74.3055   -1.1590 P.3     1  UNL1        0.2208
     26 O          24.5560   74.9752   -0.8496 O.3     1  UNL1       -0.4371
     27 O          22.3733   75.1623   -2.1025 O.2     1  UNL1       -0.5170
     28 O          22.2926   74.1585    0.2118 O.3     1  UNL1       -0.2865
     29 C          22.8796   74.3396    1.5017 C.3     1  UNL1        0.2611
     30 C          22.5033   73.1622    2.4045 C.3     1  UNL1        0.1582
     31 C          20.9825   73.1344    2.5853 C.3     1  UNL1        0.1625
     32 C          20.5229   74.4769    3.1605 C.3     1  UNL1        0.1686
     33 C          20.9756   75.6038    2.2283 C.3     1  UNL1        0.1760
     34 O          20.6282   72.0825    3.4860 O.3     1  UNL1       -0.3801
     35 O          21.1001   74.6652    4.4537 O.3     1  UNL1       -0.3794
     36 O          22.3958   75.5543    2.0785 O.3     1  UNL1       -0.3263
     37 H          19.6776   72.0061    3.6464 H       1  UNL1        0.2105
     38 H          20.8518   75.4982    4.8785 H       1  UNL1        0.2105
     39 C          22.1029   71.2122    0.9992 C.2     1  UNL1        0.2231
     40 C          22.5572   69.9250    0.3624 C.3     1  UNL1        0.0946
     41 N          22.9459   71.9102    1.7856 N.am    1  UNL1       -0.2994
     42 O          20.9774   71.6213    0.8045 O.2     1  UNL1       -0.2751
     43 H          23.8455   71.5829    1.9424 H       1  UNL1        0.1496
     44 C          20.5722   76.9530    2.8262 C.3     1  UNL1        0.1693
     45 O          19.3686   76.7994    3.5813 O.3     1  UNL1       -0.3794
     46 H          19.0532   77.6169    3.9903 H       1  UNL1        0.2105
@<TRIPOS>BOND
     1    29    30    1
     2    30    41    1
     3    30    31    1
     4    31    34    1
     5    31    32    1
     6    32    35    1
     7    32    33    1
     8    33    36    1
     9    33    44    1
    10    39    40    1
    11    39    42    2
    12    39    41   am
    13    41    43    1
    14    29    28    1
    15    34    37    1
    16    35    38    1
    17    29    36    1
    18    44    45    1
    19    45    46    1
    20    15     6    1
    21    15    16   ar
    22    16    21    2
    23    16    17   ar
    24    17    23    1
    25    17    18   ar
    26    18    19   ar
    27    19    20   ar
    28    15    20   ar
    29    18    22    2
    30     6     7    1
    31     6    11    1
    32     7     9    1
    33     7     8    1
    34     8    13    1
    35     9    10    1
    36     9    12    1
    37    10     5    1
    38    10    11    1
    39    12    14    1
    40     5     4    1
    41     4     1    1
    42     1     2    1
    43     1    24    1
    44     1     3    2
    45    24    25    1
    46    28    25    1
    47    25    26    1
    48    25    27    2
@<TRIPOS>MOLECULE
UD2
 46 48 0 0 0
SMALL
GASTEIGER

@<TRIPOS>ATOM
      1 P          22.8918   72.0958   -3.3709 P.3     1  UNL1        0.2189
      2 O          23.4879   70.6015   -3.3154 O.3     1  UNL1       -0.4371
      3 O          23.5743   72.8604   -4.4379 O.2     1  UNL1       -0.5170
      4 O          21.3129   72.0323   -3.6821 O.3     1  UNL1       -0.3112
      5 C          20.3171   72.0640   -2.6579 C.3     1  UNL1        0.1811
      6 C          18.0130   71.3265   -5.3195 C.3     1  UNL1        0.2383
      7 C          18.0517   70.0322   -4.4678 C.3     1  UNL1        0.1895
      8 O          16.7973   69.3499   -4.5194 O.3     1  UNL1       -0.3779
      9 C          18.3215   70.5857   -3.0471 C.3     1  UNL1        0.1713
     10 C          18.9279   71.9801   -3.2951 C.3     1  UNL1        0.1764
     11 O          19.0310   72.1551   -4.7171 O.3     1  UNL1       -0.3308
     12 O          17.1003   70.6941   -2.3138 O.3     1  UNL1       -0.3794
     13 H          16.7718   68.5334   -4.0024 H       1  UNL1        0.2106
     14 H          16.6451   69.8519   -2.1796 H       1  UNL1        0.2105
     15 N          18.3442   71.0351   -6.7161 N.ar    1  UNL1       -0.2551
     16 C          17.3598   70.7674   -7.5925 C.ar    1  UNL1        0.3323
     17 N          17.6351   70.4959   -8.8820 N.ar    1  UNL1       -0.2743
     18 C          18.9116   70.4903   -9.3168 C.ar    1  UNL1        0.2626
     19 C          19.9577   70.7714   -8.4053 C.ar    1  UNL1        0.0795
     20 C          19.6524   71.0443   -7.1193 C.ar    1  UNL1        0.0869
     21 O          16.2042   70.7692   -7.2145 O.2     1  UNL1       -0.2464
     22 O          19.1621   70.2452  -10.4837 O.2     1  UNL1       -0.2670
     23 H          16.9134   70.3039   -9.5004 H       1  UNL1        0.1734
     24 O          23.1299   72.8220   -1.9535 O.3     1  UNL1       -0.2703
     25 P          23.3087   74.3566   -1.4997 P.3     1  UNL1        0.2208
     26 O          24.7946   74.8555   -1.8697 O.3     1  UNL1       -0.4371
     27 O          22.3168   75.1983   -2.2040 O.2     1  UNL1       -0.5170
     28 O          23.0823   74.4760    0.0900 O.3     1  UNL1       -0.2865
     29 C          21.8121   74.2754    0.7126 C.3     1  UNL1        0.2611
     30 C          21.9520   74.4488    2.2269 C.3     1  UNL1        0.1582
     31 C          22.9088   73.3821    2.7681 C.3     1  UNL1        0.1625
     32 C          22.3788   71.9965    2.3890 C.3     1  UNL1        0.1686
     33 C          22.2225   71.9176    0.8680 C.3     1  UNL1        0.1760
     34 O          22.9883   73.4901    4.1912 O.3     1  UNL1       -0.3801
     35 O          21.1106   71.7835    3.0116 O.3     1  UNL1       -0.3794
     36 O          21.3450   72.9554    0.4265 O.3     1  UNL1       -0.3263
     37 H          23.5790   72.8439    4.6019 H       1  UNL1        0.2105
     38 H          20.7142   70.9234    2.8141 H       1  UNL1        0.2105
     39 C          21.7603   76.6559    3.2415 C.2     1  UNL1        0.2231
     40 C          22.3102   78.0254    3.5429 C.3     1  UNL1        0.0946
     41 N          22.4875   75.7808    2.5195 N.am    1  UNL1       -0.2994
     42 O          20.6619   76.3400    3.6488 O.2     1  UNL1       -0.2751
     43 H          23.3653   76.0332    2.1928 H       1  UNL1        0.1496
     44 C          21.6368   70.5570    0.4857 C.3     1  UNL1        0.1693
     45 O          22.4251   69.5174    1.0689 O.3     1  UNL1       -0.3794
     46 H          22.1112   68.6252    0.8678 H       1  UNL1        0.2105
@<TRIPOS>BOND
     1    29    30    1
     2    30    41    1
     3    30    31    1
     4    31    34    1
     5    31    32    1
     6    32    35    1
     7    32    33    1
     8    33    36    1
     9    33    44    1
    10    39    40    1
    11    39    42    2
    12    39    41   am
    13    41    43    1
    14    29    28    1
    15    34    37    1
    16    35    38    1
    17    29    36    1
    18    44    45    1
    19    45    46    1
    20    15     6    1
    21    15    16   ar
    22    16    21    2
    23    16    17   ar
    24    17    23    1
    25    17    18   ar
    26    18    19   ar
    27    19    20   ar
    28    15    20   ar
    29    18    22    2
    30     6     7    1
    31     6    11    1
    32     7     9    1
    33     7     8    1
    34     8    13    1
    35     9    10    1
    36     9    12    1
    37    10     5    1
    38    10    11    1
    39    12    14    1
    40     5     4    1
    41     4     1    1
    42     1     2    1
    43     1    24    1
    44     1     3    2
    45    24    25    1
    46    28    25    1
    47    25    26    1
    48    25    27    2
@<TRIPOS>MOLECULE
UD2
 46 48 0 0 0
SMALL
GASTEIGER

@<TRIPOS>ATOM
      1 P          21.8797   70.7066   -0.6116 P.3     1  UNL1        0.2189
      2 O          21.6028   69.4421    0.3453 O.3     1  UNL1       -0.4371
      3 O          22.9255   70.3593   -1.5988 O.2     1  UNL1       -0.5170
      4 O          20.5229   71.1024   -1.3837 O.3     1  UNL1       -0.3112
      5 C          20.5113   71.8518   -2.6002 C.3     1  UNL1        0.1811
      6 C          18.1095   71.2586   -5.2109 C.3     1  UNL1        0.2383
      7 C          18.1281   69.9427   -4.3923 C.3     1  UNL1        0.1895
      8 O          16.8503   69.3041   -4.4240 O.3     1  UNL1       -0.3779
      9 C          18.4564   70.4510   -2.9670 C.3     1  UNL1        0.1713
     10 C          19.1026   71.8302   -3.1986 C.3     1  UNL1        0.1764
     11 O          19.1715   72.0374   -4.6184 O.3     1  UNL1       -0.3308
     12 O          17.2607   70.5814   -2.1962 O.3     1  UNL1       -0.3794
     13 H          16.8116   68.4761   -3.9264 H       1  UNL1        0.2106
     14 H          16.7812   69.7517   -2.0693 H       1  UNL1        0.2105
     15 N          18.3911   70.9916   -6.6231 N.ar    1  UNL1       -0.2551
     16 C          17.3748   70.7612   -7.4733 C.ar    1  UNL1        0.3323
     17 N          17.6043   70.5128   -8.7764 N.ar    1  UNL1       -0.2743
     18 C          18.8662   70.4932   -9.2515 C.ar    1  UNL1        0.2626
     19 C          19.9455   70.7351   -8.3679 C.ar    1  UNL1        0.0795
     20 C          19.6859   70.9855   -7.0674 C.ar    1  UNL1        0.0869
     21 O          16.2318   70.7759   -7.0589 O.2     1  UNL1       -0.2464
     22 O          19.0753   70.2689  -10.4307 O.2     1  UNL1       -0.2670
     23 H          16.8601   70.3475   -9.3755 H       1  UNL1        0.1734
     24 O          22.3739   71.9549    0.2777 O.3     1  UNL1       -0.2703
     25 P          21.7422   72.7627    1.5191 P.3     1  UNL1        0.2208
     26 O          20.7263   73.8843    0.9679 O.3     1  UNL1       -0.4371
     27 O          21.0103   71.8242    2.3976 O.2     1  UNL1       -0.5170
     28 O          22.9223   73.4711    2.3547 O.3     1  UNL1       -0.2865
     29 C          22.8362   74.8124    2.8393 C.3     1  UNL1        0.2611
     30 C          24.2240   75.2887    3.2749 C.3     1  UNL1        0.1582
     31 C          24.7180   74.4086    4.4272 C.3     1  UNL1        0.1625
     32 C          23.7003   74.4636    5.5699 C.3     1  UNL1        0.1686
     33 C          22.3323   74.0189    5.0457 C.3     1  UNL1        0.1760
     34 O          25.9814   74.8920    4.8892 O.3     1  UNL1       -0.3801
     35 O          23.6108   75.8005    6.0659 O.3     1  UNL1       -0.3794
     36 O          21.9456   74.8587    3.9561 O.3     1  UNL1       -0.3263
     37 H          26.3547   74.3799    5.6197 H       1  UNL1        0.2105
     38 H          22.9821   75.9097    6.7930 H       1  UNL1        0.2105
     39 C          26.0703   76.1505    1.9384 C.2     1  UNL1        0.2231
     40 C          27.0260   76.0450    0.7791 C.3     1  UNL1        0.0946
     41 N          25.1532   75.1854    2.1468 N.am    1  UNL1       -0.2994
     42 O          26.1257   77.1050    2.6855 O.2     1  UNL1       -0.2751
     43 H          25.1079   74.4226    1.5492 H       1  UNL1        0.1496
     44 C          21.2968   74.1281    6.1666 C.3     1  UNL1        0.1693
     45 O          21.9582   74.0868    7.4327 O.3     1  UNL1       -0.3794
     46 H          21.3617   74.1512    8.1910 H       1  UNL1        0.2105
@<TRIPOS>BOND
     1    29    30    1
     2    30    41    1
     3    30    31    1
     4    31    34    1
     5    31    32    1
     6    32    35    1
     7    32    33    1
     8    33    36    1
     9    33    44    1
    10    39    40    1
    11    39    42    2
    12    39    41   am
    13    41    43    1
    14    29    28    1
    15    34    37    1
    16    35    38    1
    17    29    36    1
    18    44    45    1
    19    45    46    1
    20    15     6    1
    21    15    16   ar
    22    16    21    2
    23    16    17   ar
    24    17    23    1
    25    17    18   ar
    26    18    19   ar
    27    19    20   ar
    28    15    20   ar
    29    18    22    2
    30     6     7    1
    31     6    11    1
    32     7     9    1
    33     7     8    1
    34     8    13    1
    35     9    10    1
    36     9    12    1
    37    10     5    1
    38    10    11    1
    39    12    14    1
    40     5     4    1
    41     4     1    1
    42     1     2    1
    43     1    24    1
    44     1     3    2
    45    24    25    1
    46    28    25    1
    47    25    26    1
    48    25    27    2
@<TRIPOS>MOLECULE
UD2
 46 48 0 0 0
SMALL
GASTEIGER

@<TRIPOS>ATOM
      1 P          22.0805   73.7542   -6.5265 P.3     1  UNL1        0.2189
      2 O          23.1175   74.9319   -6.8857 O.3     1  UNL1       -0.4371
      3 O          20.8487   74.3388   -5.9523 O.2     1  UNL1       -0.5170
      4 O          21.7133   72.9362   -7.8643 O.3     1  UNL1       -0.3112
      5 C          20.8769   73.4662   -8.8943 C.3     1  UNL1        0.1811
      6 C          18.3020   71.3127   -7.6024 C.3     1  UNL1        0.2383
      7 C          17.7283   72.7439   -7.4452 C.3     1  UNL1        0.1895
      8 O          16.3040   72.7380   -7.5606 O.3     1  UNL1       -0.3779
      9 C          18.3761   73.4870   -8.6392 C.3     1  UNL1        0.1713
     10 C          19.6019   72.6256   -8.9984 C.3     1  UNL1        0.1764
     11 O          19.6533   71.5412   -8.0578 O.3     1  UNL1       -0.3308
     12 O          17.4680   73.5492   -9.7401 O.3     1  UNL1       -0.3794
     13 H          15.8981   73.6106   -7.4686 H       1  UNL1        0.2106
     14 H          16.6511   74.0301   -9.5505 H       1  UNL1        0.2105
     15 N          18.3021   70.6129   -6.3158 N.ar    1  UNL1       -0.2551
     16 C          17.2009   69.9518   -5.9167 C.ar    1  UNL1        0.3323
     17 N          17.1728   69.3001   -4.7391 N.ar    1  UNL1       -0.2743
     18 C          18.2574   69.2994   -3.9377 C.ar    1  UNL1        0.2626
     19 C          19.4237   69.9903   -4.3459 C.ar    1  UNL1        0.0795
     20 C          19.4253   70.6316   -5.5334 C.ar    1  UNL1        0.0869
     21 O          16.2157   69.9438   -6.6292 O.2     1  UNL1       -0.2464
     22 O          18.2334   68.7096   -2.8719 O.2     1  UNL1       -0.2670
     23 H          16.3703   68.8295   -4.4660 H       1  UNL1        0.1734
     24 O          22.7513   72.7563   -5.4553 O.3     1  UNL1       -0.2703
     25 P          22.7647   72.6882   -3.8465 P.3     1  UNL1        0.2208
     26 O          23.6791   71.4512   -3.3698 O.3     1  UNL1       -0.4371
     27 O          23.3183   73.9481   -3.3038 O.2     1  UNL1       -0.5170
     28 O          21.2618   72.4850   -3.3056 O.3     1  UNL1       -0.2865
     29 C          20.7883   73.0616   -2.0871 C.3     1  UNL1        0.2611
     30 C          21.7913   74.1066   -1.5925 C.3     1  UNL1        0.1582
     31 C          23.1267   73.4186   -1.2934 C.3     1  UNL1        0.1625
     32 C          22.8965   72.3045   -0.2686 C.3     1  UNL1        0.1686
     33 C          21.8507   71.3286   -0.8145 C.3     1  UNL1        0.1760
     34 O          24.0472   74.3741   -0.7613 O.3     1  UNL1       -0.3801
     35 O          22.4280   72.8715    0.9562 O.3     1  UNL1       -0.3794
     36 O          20.6435   72.0376   -1.1008 O.3     1  UNL1       -0.3263
     37 H          24.9162   74.0066   -0.5493 H       1  UNL1        0.2105
     38 H          22.2599   72.2212    1.6525 H       1  UNL1        0.2105
     39 C          21.4737   76.3609   -2.4616 C.2     1  UNL1        0.2231
     40 C          21.6740   77.4091   -3.5244 C.3     1  UNL1        0.0946
     41 N          21.9864   75.1256   -2.6270 N.am    1  UNL1       -0.2994
     42 O          20.8503   76.6283   -1.4555 O.2     1  UNL1       -0.2751
     43 H          22.4839   74.9111   -3.4316 H       1  UNL1        0.1496
     44 C          21.5710   70.2451    0.2287 C.3     1  UNL1        0.1693
     45 O          22.6581   69.3179    0.2568 O.3     1  UNL1       -0.3794
     46 H          22.5485   68.6017    0.8972 H       1  UNL1        0.2105
@<TRIPOS>BOND
     1    29    30    1
     2    30    41    1
     3    30    31    1
     4    31    34    1
     5    31    32    1
     6    32    35    1
     7    32    33    1
     8    33    36    1
     9    33    44    1
    10    39    40    1
    11    39    42    2
    12    39    41   am
    13    41    43    1
    14    29    28    1
    15    34    37    1
    16    35    38    1
    17    29    36    1
    18    44    45    1
    19    45    46    1
    20    15     6    1
    21    15    16   ar
    22    16    21    2
    23    16    17   ar
    24    17    23    1
    25    17    18   ar
    26    18    19   ar
    27    19    20   ar
    28    15    20   ar
    29    18    22    2
    30     6     7    1
    31     6    11    1
    32     7     9    1
    33     7     8    1
    34     8    13    1
    35     9    10    1
    36     9    12    1
    37    10     5    1
    38    10    11    1
    39    12    14    1
    40     5     4    1
    41     4     1    1
    42     1     2    1
    43     1    24    1
    44     1     3    2
    45    24    25    1
    46    28    25    1
    47    25    26    1
    48    25    27    2
@<TRIPOS>MOLECULE
UD2
 46 48 0 0 0
SMALL
GASTEIGER

@<TRIPOS>ATOM
      1 P          22.1384   70.3826   -0.2950 P.3     1  UNL1        0.2189
      2 O          21.2318   70.8893    0.9348 O.3     1  UNL1       -0.4371
      3 O          23.1129   69.3805    0.1898 O.2     1  UNL1       -0.5170
      4 O          21.1956   69.7152   -1.4173 O.3     1  UNL1       -0.3112
      5 C          21.2268   70.1062   -2.7912 C.3     1  UNL1        0.1811
      6 C          18.5759   70.7741   -5.1286 C.3     1  UNL1        0.2383
      7 C          18.2139   69.3994   -4.5112 C.3     1  UNL1        0.1895
      8 O          16.7973   69.2171   -4.4673 O.3     1  UNL1       -0.3779
      9 C          18.7998   69.5198   -3.0830 C.3     1  UNL1        0.1713
     10 C          19.8516   70.6394   -3.2007 C.3     1  UNL1        0.1764
     11 O          19.8790   71.0580   -4.5746 O.3     1  UNL1       -0.3308
     12 O          17.7786   69.8880   -2.1543 O.3     1  UNL1       -0.3794
     13 H          16.5209   68.3712   -4.0896 H       1  UNL1        0.2106
     14 H          17.0596   69.2456   -2.0840 H       1  UNL1        0.2105
     15 N          18.6446   70.6818   -6.5887 N.ar    1  UNL1       -0.2551
     16 C          17.5155   70.7598   -7.3152 C.ar    1  UNL1        0.3323
     17 N          17.5490   70.6779   -8.6585 N.ar    1  UNL1       -0.2743
     18 C          18.7244   70.5169   -9.2996 C.ar    1  UNL1        0.2626
     19 C          19.9208   70.4343   -8.5473 C.ar    1  UNL1        0.0795
     20 C          19.8582   70.5238   -7.2021 C.ar    1  UNL1        0.0869
     21 O          16.4485   70.9051   -6.7505 O.2     1  UNL1       -0.2464
     22 O          18.7561   70.4430  -10.5153 O.2     1  UNL1       -0.2670
     23 H          16.7254   70.7348   -9.1670 H       1  UNL1        0.1734
     24 O          22.9268   71.6339   -0.9323 O.3     1  UNL1       -0.2703
     25 P          22.7006   73.2280   -0.9068 P.3     1  UNL1        0.2208
     26 O          21.3305   73.5628   -0.1294 O.3     1  UNL1       -0.4371
     27 O          23.8333   73.8761   -0.2101 O.2     1  UNL1       -0.5170
     28 O          22.6108   73.7814   -2.4162 O.3     1  UNL1       -0.2865
     29 C          23.6883   73.6777   -3.3487 C.3     1  UNL1        0.2611
     30 C          24.3215   75.0560   -3.5536 C.3     1  UNL1        0.1582
     31 C          23.2778   76.0039   -4.1524 C.3     1  UNL1        0.1625
     32 C          22.7520   75.4064   -5.4604 C.3     1  UNL1        0.1686
     33 C          22.1791   74.0143   -5.1819 C.3     1  UNL1        0.1760
     34 O          23.8808   77.2729   -4.4153 O.3     1  UNL1       -0.3801
     35 O          23.8212   75.3038   -6.4024 O.3     1  UNL1       -0.3794
     36 O          23.1916   73.1924   -4.5978 O.3     1  UNL1       -0.3263
     37 H          23.2756   77.9243   -4.7957 H       1  UNL1        0.2105
     38 H          23.5597   74.9315   -7.2562 H       1  UNL1        0.2105
     39 C          26.0921   75.5905   -1.9671 C.2     1  UNL1        0.2231
     40 C          26.5620   76.1307   -0.6420 C.3     1  UNL1        0.0946
     41 N          24.7777   75.5814   -2.2643 N.am    1  UNL1       -0.2994
     42 O          26.8972   75.1629   -2.7680 O.2     1  UNL1       -0.2751
     43 H          24.1336   75.9222   -1.6239 H       1  UNL1        0.1496
     44 C          21.7058   73.3860   -6.4940 C.3     1  UNL1        0.1693
     45 O          22.8040   72.7322   -7.1334 O.3     1  UNL1       -0.3794
     46 H          22.5765   72.3104   -7.9732 H       1  UNL1        0.2105
@<TRIPOS>BOND
     1    29    30    1
     2    30    41    1
     3    30    31    1
     4    31    34    1
     5    31    32    1
     6    32    35    1
     7    32    33    1
     8    33    36    1
     9    33    44    1
    10    39    40    1
    11    39    42    2
    12    39    41   am
    13    41    43    1
    14    29    28    1
    15    34    37    1
    16    35    38    1
    17    29    36    1
    18    44    45    1
    19    45    46    1
    20    15     6    1
    21    15    16   ar
    22    16    21    2
    23    16    17   ar
    24    17    23    1
    25    17    18   ar
    26    18    19   ar
    27    19    20   ar
    28    15    20   ar
    29    18    22    2
    30     6     7    1
    31     6    11    1
    32     7     9    1
    33     7     8    1
    34     8    13    1
    35     9    10    1
    36     9    12    1
    37    10     5    1
    38    10    11    1
    39    12    14    1
    40     5     4    1
    41     4     1    1
    42     1     2    1
    43     1    24    1
    44     1     3    2
    45    24    25    1
    46    28    25    1
    47    25    26    1
    48    25    27    2
@<TRIPOS>MOLECULE
UD2
 46 48 0 0 0
SMALL
GASTEIGER

@<TRIPOS>ATOM
      1 P          22.3409   71.1131   -2.4857 P.3     1  UNL1        0.2189
      2 O          23.6089   70.5157   -3.2775 O.3     1  UNL1       -0.4371
      3 O          21.1922   70.1912   -2.6255 O.2     1  UNL1       -0.5170
      4 O          22.7107   71.2774   -0.9268 O.3     1  UNL1       -0.3112
      5 C          21.7478   71.1364    0.1193 C.3     1  UNL1        0.1811
      6 C          21.1534   73.9324    2.3023 C.3     1  UNL1        0.2383
      7 C          22.4373   74.3132    1.5220 C.3     1  UNL1        0.1895
      8 O          22.5294   75.7289    1.3513 O.3     1  UNL1       -0.3779
      9 C          22.2136   73.6063    0.1628 C.3     1  UNL1        0.1713
     10 C          21.1758   72.5111    0.4743 C.3     1  UNL1        0.1764
     11 O          20.8954   72.5752    1.8817 O.3     1  UNL1       -0.3308
     12 O          21.6963   74.5270   -0.7992 O.3     1  UNL1       -0.3794
     13 H          23.3164   76.0168    0.8692 H       1  UNL1        0.2106
     14 H          22.2846   75.2701   -0.9895 H       1  UNL1        0.2105
     15 N          21.3915   73.9890    3.7463 N.ar    1  UNL1       -0.2551
     16 C          20.3827   74.3096    4.5759 C.ar    1  UNL1        0.3323
     17 N          20.5729   74.3694    5.9073 N.ar    1  UNL1       -0.2743
     18 C          21.7867   74.1047    6.4320 C.ar    1  UNL1        0.2626
     19 C          22.8574   73.7649    5.5704 C.ar    1  UNL1        0.0795
     20 C          22.6371   73.7084    4.2401 C.ar    1  UNL1        0.0869
     21 O          19.2829   74.5505    4.1168 O.2     1  UNL1       -0.2464
     22 O          21.9601   74.1581    7.6368 O.2     1  UNL1       -0.2670
     23 H          19.8350   74.6033    6.4911 H       1  UNL1        0.1734
     24 O          21.9535   72.5508   -3.0990 O.3     1  UNL1       -0.2703
     25 P          21.7446   73.1083   -4.5952 P.3     1  UNL1        0.2208
     26 O          21.7755   74.7184   -4.5765 O.3     1  UNL1       -0.4371
     27 O          22.8296   72.6048   -5.4655 O.2     1  UNL1       -0.5170
     28 O          20.3240   72.6049   -5.1619 O.3     1  UNL1       -0.2865
     29 C          20.1296   71.3118   -5.7376 C.3     1  UNL1        0.2611
     30 C          19.6978   71.4622   -7.1983 C.3     1  UNL1        0.1582
     31 C          18.3573   72.2015   -7.2519 C.3     1  UNL1        0.1625
     32 C          17.3285   71.4322   -6.4188 C.3     1  UNL1        0.1686
     33 C          17.8518   71.2831   -4.9877 C.3     1  UNL1        0.1760
     34 O          17.9105   72.2818   -8.6074 O.3     1  UNL1       -0.3801
     35 O          17.1224   70.1389   -6.9898 O.3     1  UNL1       -0.3794
     36 O          19.1149   70.6152   -5.0113 O.3     1  UNL1       -0.3263
     37 H          17.0655   72.7394   -8.7161 H       1  UNL1        0.2105
     38 H          16.4814   69.5946   -6.5114 H       1  UNL1        0.2105
     39 C          20.5724   73.5612   -8.0740 C.2     1  UNL1        0.2231
     40 C          21.6118   74.3494   -8.8271 C.3     1  UNL1        0.0946
     41 N          20.7091   72.2282   -7.9311 N.am    1  UNL1       -0.2994
     42 O          19.6112   74.1263   -7.5957 O.2     1  UNL1       -0.2751
     43 H          21.4770   71.7758   -8.3143 H       1  UNL1        0.1496
     44 C          16.8566   70.4637   -4.1639 C.3     1  UNL1        0.1693
     45 O          17.1541   69.0727   -4.3020 O.3     1  UNL1       -0.3794
     46 H          16.5615   68.4920   -3.8054 H       1  UNL1        0.2105
@<TRIPOS>BOND
     1    29    30    1
     2    30    41    1
     3    30    31    1
     4    31    34    1
     5    31    32    1
     6    32    35    1
     7    32    33    1
     8    33    36    1
     9    33    44    1
    10    39    40    1
    11    39    42    2
    12    39    41   am
    13    41    43    1
    14    29    28    1
    15    34    37    1
    16    35    38    1
    17    29    36    1
    18    44    45    1
    19    45    46    1
    20    15     6    1
    21    15    16   ar
    22    16    21    2
    23    16    17   ar
    24    17    23    1
    25    17    18   ar
    26    18    19   ar
    27    19    20   ar
    28    15    20   ar
    29    18    22    2
    30     6     7    1
    31     6    11    1
    32     7     9    1
    33     7     8    1
    34     8    13    1
    35     9    10    1
    36     9    12    1
    37    10     5    1
    38    10    11    1
    39    12    14    1
    40     5     4    1
    41     4     1    1
    42     1     2    1
    43     1    24    1
    44     1     3    2
    45    24    25    1
    46    28    25    1
    47    25    26    1
    48    25    27    2
@<TRIPOS>MOLECULE
UD2
 46 48 0 0 0
SMALL
GASTEIGER

@<TRIPOS>ATOM
      1 P          22.1708   70.3516   -0.1808 P.3     1  UNL1        0.2189
      2 O          21.2970   70.7940    1.0968 O.3     1  UNL1       -0.4371
      3 O          23.1559   69.3255    0.2259 O.2     1  UNL1       -0.5170
      4 O          21.1982   69.7436   -1.3114 O.3     1  UNL1       -0.3112
      5 C          21.2369   70.1624   -2.6769 C.3     1  UNL1        0.1811
      6 C          18.5939   70.8240   -5.0250 C.3     1  UNL1        0.2383
      7 C          18.2457   69.4373   -4.4268 C.3     1  UNL1        0.1895
      8 O          16.8314   69.2359   -4.3953 O.3     1  UNL1       -0.3779
      9 C          18.8199   69.5480   -2.9931 C.3     1  UNL1        0.1713
     10 C          19.8577   70.6825   -3.0898 C.3     1  UNL1        0.1764
     11 O          19.8893   71.1181   -4.4582 O.3     1  UNL1       -0.3308
     12 O          17.7875   69.8914   -2.0674 O.3     1  UNL1       -0.3794
     13 H          16.5634   68.3820   -4.0298 H       1  UNL1        0.2106
     14 H          17.0766   69.2389   -2.0100 H       1  UNL1        0.2105
     15 N          18.6741   70.7503   -6.4855 N.ar    1  UNL1       -0.2551
     16 C          17.5447   70.7513   -7.2158 C.ar    1  UNL1        0.3323
     17 N          17.5885   70.6843   -8.5596 N.ar    1  UNL1       -0.2743
     18 C          18.7748   70.6166   -9.1975 C.ar    1  UNL1        0.2626
     19 C          19.9716   70.6157   -8.4413 C.ar    1  UNL1        0.0795
     20 C          19.8980   70.6880   -7.0956 C.ar    1  UNL1        0.0869
     21 O          16.4681   70.8122   -6.6541 O.2     1  UNL1       -0.2464
     22 O          18.8159   70.5563  -10.4137 O.2     1  UNL1       -0.2670
     23 H          16.7647   70.6849   -9.0709 H       1  UNL1        0.1734
     24 O          22.9443   71.6342   -0.7725 O.3     1  UNL1       -0.2703
     25 P          22.7381   73.2253   -0.6356 P.3     1  UNL1        0.2208
     26 O          21.2727   73.6241   -1.1718 O.3     1  UNL1       -0.4371
     27 O          22.8673   73.6194    0.7844 O.2     1  UNL1       -0.5170
     28 O          23.8554   73.9882   -1.5086 O.3     1  UNL1       -0.2865
     29 C          23.9035   75.4101   -1.6402 C.3     1  UNL1        0.2611
     30 C          24.1578   75.7797   -3.1036 C.3     1  UNL1        0.1582
     31 C          25.5206   75.2266   -3.5315 C.3     1  UNL1        0.1625
     32 C          26.6002   75.7796   -2.5971 C.3     1  UNL1        0.1686
     33 C          26.2517   75.4098   -1.1529 C.3     1  UNL1        0.1760
     34 O          25.7990   75.6298   -4.8744 O.3     1  UNL1       -0.3801
     35 O          26.6605   77.2013   -2.7254 O.3     1  UNL1       -0.3794
     36 O          24.9599   75.9276   -0.8288 O.3     1  UNL1       -0.3263
     37 H          26.6482   75.3132   -5.2116 H       1  UNL1        0.2105
     38 H          27.3245   77.6201   -2.1600 H       1  UNL1        0.2105
     39 C          23.2533   73.9552   -4.4417 C.2     1  UNL1        0.2231
     40 C          22.1742   73.3576   -5.3060 C.3     1  UNL1        0.0946
     41 N          23.1078   75.1992   -3.9444 N.am    1  UNL1       -0.2994
     42 O          24.2545   73.3165   -4.1927 O.2     1  UNL1       -0.2751
     43 H          22.3080   75.7105   -4.1441 H       1  UNL1        0.1496
     44 C          27.2941   76.0097   -0.2074 C.3     1  UNL1        0.1693
     45 O          26.9353   75.7183    1.1449 O.3     1  UNL1       -0.3794
     46 H          27.5532   76.0692    1.8007 H       1  UNL1        0.2105
@<TRIPOS>BOND
     1    29    30    1
     2    30    41    1
     3    30    31    1
     4    31    34    1
     5    31    32    1
     6    32    35    1
     7    32    33    1
     8    33    36    1
     9    33    44    1
    10    39    40    1
    11    39    42    2
    12    39    41   am
    13    41    43    1
    14    29    28    1
    15    34    37    1
    16    35    38    1
    17    29    36    1
    18    44    45    1
    19    45    46    1
    20    15     6    1
    21    15    16   ar
    22    16    21    2
    23    16    17   ar
    24    17    23    1
    25    17    18   ar
    26    18    19   ar
    27    19    20   ar
    28    15    20   ar
    29    18    22    2
    30     6     7    1
    31     6    11    1
    32     7     9    1
    33     7     8    1
    34     8    13    1
    35     9    10    1
    36     9    12    1
    37    10     5    1
    38    10    11    1
    39    12    14    1
    40     5     4    1
    41     4     1    1
    42     1     2    1
    43     1    24    1
    44     1     3    2
    45    24    25    1
    46    28    25    1
    47    25    26    1
    48    25    27    2
@<TRIPOS>MOLECULE
UD2
 46 48 0 0 0
SMALL
GASTEIGER

@<TRIPOS>ATOM
      1 P          23.1301   72.2034   -3.0980 P.3     1  UNL1        0.2189
      2 O          24.2503   73.0574   -3.8774 O.3     1  UNL1       -0.4371
      3 O          23.4734   70.7656   -3.1597 O.2     1  UNL1       -0.5170
      4 O          23.0699   72.6754   -1.5594 O.3     1  UNL1       -0.3112
      5 C          22.5092   71.8701   -0.5209 C.3     1  UNL1        0.1811
      6 C          20.6733   73.5825    2.0547 C.3     1  UNL1        0.2383
      7 C          21.3220   74.7155    1.2196 C.3     1  UNL1        0.1895
      8 O          20.5050   75.8878    1.2287 O.3     1  UNL1       -0.3779
      9 C          21.3728   74.0886   -0.1952 C.3     1  UNL1        0.1713
     10 C          21.2800   72.5723    0.0612 C.3     1  UNL1        0.1764
     11 O          21.2360   72.3810    1.4842 O.3     1  UNL1       -0.3308
     12 O          20.2633   74.5328   -0.9778 O.3     1  UNL1       -0.3794
     13 H          20.8689   76.6251    0.7202 H       1  UNL1        0.2106
     14 H          20.2393   75.4886   -1.1207 H       1  UNL1        0.2105
     15 N          21.0428   73.7058    3.4665 N.ar    1  UNL1       -0.2551
     16 C          22.3090   73.4603    3.8478 C.ar    1  UNL1        0.3323
     17 N          22.6766   73.5657    5.1385 N.ar    1  UNL1       -0.2743
     18 C          21.7740   73.9236    6.0743 C.ar    1  UNL1        0.2626
     19 C          20.4379   74.1861    5.6868 C.ar    1  UNL1        0.0795
     20 C          20.0982   74.0767    4.3852 C.ar    1  UNL1        0.0869
     21 O          23.1335   73.1368    3.0148 O.2     1  UNL1       -0.2464
     22 O          22.1055   74.0198    7.2428 O.2     1  UNL1       -0.2670
     23 H          23.5934   73.3839    5.3965 H       1  UNL1        0.1734
     24 O          21.6953   72.4430   -3.7887 O.3     1  UNL1       -0.2703
     25 P          21.2250   72.9898   -5.2285 P.3     1  UNL1        0.2208
     26 O          21.0836   74.5931   -5.1731 O.3     1  UNL1       -0.4371
     27 O          22.2291   72.6187   -6.2494 O.2     1  UNL1       -0.5170
     28 O          19.8033   72.3382   -5.6116 O.3     1  UNL1       -0.2865
     29 C          19.6087   70.9315   -5.7685 C.3     1  UNL1        0.2611
     30 C          18.3603   70.6797   -6.6177 C.3     1  UNL1        0.1582
     31 C          17.1356   71.2402   -5.8881 C.3     1  UNL1        0.1625
     32 C          17.0373   70.5910   -4.5049 C.3     1  UNL1        0.1686
     33 C          18.3370   70.8464   -3.7370 C.3     1  UNL1        0.1760
     34 O          15.9559   70.9445   -6.6393 O.3     1  UNL1       -0.3801
     35 O          16.8367   69.1840   -4.6507 O.3     1  UNL1       -0.3794
     36 O          19.4394   70.3282   -4.4841 O.3     1  UNL1       -0.3263
     37 H          15.1405   71.2716   -6.2353 H       1  UNL1        0.2105
     38 H          16.7660   68.7070   -3.8120 H       1  UNL1        0.2105
     39 C          19.3970   70.8857   -8.8133 C.2     1  UNL1        0.2231
     40 C          19.5480   71.5719  -10.1455 C.3     1  UNL1        0.0946
     41 N          18.5068   71.3479   -7.9132 N.am    1  UNL1       -0.2994
     42 O          20.0770   69.9160   -8.5497 O.2     1  UNL1       -0.2751
     43 H          17.9637   72.1238   -8.1231 H       1  UNL1        0.1496
     44 C          18.2704   70.1502   -2.3764 C.3     1  UNL1        0.1693
     45 O          18.4446   68.7426   -2.5516 O.3     1  UNL1       -0.3794
     46 H          18.4136   68.2364   -1.7283 H       1  UNL1        0.2105
@<TRIPOS>BOND
     1    29    30    1
     2    30    41    1
     3    30    31    1
     4    31    34    1
     5    31    32    1
     6    32    35    1
     7    32    33    1
     8    33    36    1
     9    33    44    1
    10    39    40    1
    11    39    42    2
    12    39    41   am
    13    41    43    1
    14    29    28    1
    15    34    37    1
    16    35    38    1
    17    29    36    1
    18    44    45    1
    19    45    46    1
    20    15     6    1
    21    15    16   ar
    22    16    21    2
    23    16    17   ar
    24    17    23    1
    25    17    18   ar
    26    18    19   ar
    27    19    20   ar
    28    15    20   ar
    29    18    22    2
    30     6     7    1
    31     6    11    1
    32     7     9    1
    33     7     8    1
    34     8    13    1
    35     9    10    1
    36     9    12    1
    37    10     5    1
    38    10    11    1
    39    12    14    1
    40     5     4    1
    41     4     1    1
    42     1     2    1
    43     1    24    1
    44     1     3    2
    45    24    25    1
    46    28    25    1
    47    25    26    1
    48    25    27    2
@<TRIPOS>MOLECULE
UD2
 46 48 0 0 0
SMALL
GASTEIGER

@<TRIPOS>ATOM
      1 P          22.8344   72.1434   -3.5053 P.3     1  UNL1        0.2189
      2 O          24.0198   73.2309   -3.4448 O.3     1  UNL1       -0.4371
      3 O          23.3545   70.8222   -3.0899 O.2     1  UNL1       -0.5170
      4 O          21.6466   72.5888   -2.5131 O.3     1  UNL1       -0.3112
      5 C          21.3332   71.8839   -1.3105 C.3     1  UNL1        0.1811
      6 C          23.1266   72.1304    1.7975 C.3     1  UNL1        0.2383
      7 C          22.6955   70.6441    1.7131 C.3     1  UNL1        0.1895
      8 O          23.6437   69.7999    2.3689 O.3     1  UNL1       -0.3779
      9 C          22.6950   70.3917    0.1854 C.3     1  UNL1        0.1713
     10 C          22.5816   71.8000   -0.4288 C.3     1  UNL1        0.1764
     11 O          22.4761   72.7335    0.6579 O.3     1  UNL1       -0.3308
     12 O          23.9148   69.7667   -0.2173 O.3     1  UNL1       -0.3794
     13 H          23.4176   68.8603    2.3438 H       1  UNL1        0.2106
     14 H          24.0663   68.9014    0.1863 H       1  UNL1        0.2105
     15 N          22.6511   72.7355    3.0435 N.ar    1  UNL1       -0.2551
     16 C          21.3688   72.5742    3.4158 C.ar    1  UNL1        0.3323
     17 N          20.9045   73.1192    4.5557 N.ar    1  UNL1       -0.2743
     18 C          21.7254   73.8387    5.3476 C.ar    1  UNL1        0.2626
     19 C          23.0778   74.0157    4.9684 C.ar    1  UNL1        0.0795
     20 C          23.5174   73.4545    3.8224 C.ar    1  UNL1        0.0869
     21 O          20.6174   71.9277    2.7116 O.2     1  UNL1       -0.2464
     22 O          21.3065   74.3322    6.3798 O.2     1  UNL1       -0.2670
     23 H          19.9768   72.9941    4.8087 H       1  UNL1        0.1734
     24 O          22.2687   72.0490   -5.0101 O.3     1  UNL1       -0.2703
     25 P          21.5795   73.1031   -6.0135 P.3     1  UNL1        0.2208
     26 O          21.3326   74.4951   -5.2420 O.3     1  UNL1       -0.4371
     27 O          22.4679   73.3337   -7.1736 O.2     1  UNL1       -0.5170
     28 O          20.1704   72.5150   -6.5245 O.3     1  UNL1       -0.2865
     29 C          18.9176   72.8792   -5.9420 C.3     1  UNL1        0.2611
     30 C          18.0213   71.6425   -5.8427 C.3     1  UNL1        0.1582
     31 C          17.7419   71.1105   -7.2517 C.3     1  UNL1        0.1625
     32 C          17.1051   72.2232   -8.0889 C.3     1  UNL1        0.1686
     33 C          18.0371   73.4378   -8.1017 C.3     1  UNL1        0.1760
     34 O          16.8459   69.9995   -7.1734 O.3     1  UNL1       -0.3801
     35 O          15.8482   72.5909   -7.5177 O.3     1  UNL1       -0.3794
     36 O          18.2808   73.8633   -6.7595 O.3     1  UNL1       -0.3263
     37 H          16.6255   69.6113   -8.0313 H       1  UNL1        0.2105
     38 H          15.3878   73.2935   -7.9978 H       1  UNL1        0.2105
     39 C          17.9950   69.8529   -4.1891 C.2     1  UNL1        0.2231
     40 C          18.6902   68.7906   -3.3787 C.3     1  UNL1        0.0946
     41 N          18.6983   70.6095   -5.0546 N.am    1  UNL1       -0.2994
     42 O          16.8011   70.0280   -4.0629 O.2     1  UNL1       -0.2751
     43 H          19.6531   70.4705   -5.1551 H       1  UNL1        0.1496
     44 C          17.3812   74.5754   -8.8866 C.3     1  UNL1        0.1693
     45 O          16.8052   74.0565  -10.0872 O.3     1  UNL1       -0.3794
     46 H          16.3709   74.7237  -10.6361 H       1  UNL1        0.2105
@<TRIPOS>BOND
     1    29    30    1
     2    30    41    1
     3    30    31    1
     4    31    34    1
     5    31    32    1
     6    32    35    1
     7    32    33    1
     8    33    36    1
     9    33    44    1
    10    39    40    1
    11    39    42    2
    12    39    41   am
    13    41    43    1
    14    29    28    1
    15    34    37    1
    16    35    38    1
    17    29    36    1
    18    44    45    1
    19    45    46    1
    20    15     6    1
    21    15    16   ar
    22    16    21    2
    23    16    17   ar
    24    17    23    1
    25    17    18   ar
    26    18    19   ar
    27    19    20   ar
    28    15    20   ar
    29    18    22    2
    30     6     7    1
    31     6    11    1
    32     7     9    1
    33     7     8    1
    34     8    13    1
    35     9    10    1
    36     9    12    1
    37    10     5    1
    38    10    11    1
    39    12    14    1
    40     5     4    1
    41     4     1    1
    42     1     2    1
    43     1    24    1
    44     1     3    2
    45    24    25    1
    46    28    25    1
    47    25    26    1
    48    25    27    2
@<TRIPOS>MOLECULE
UD2
 46 48 0 0 0
SMALL
GASTEIGER

@<TRIPOS>ATOM
      1 P          21.5859   70.3635   -2.5376 P.3     1  UNL1        0.2189
      2 O          23.0083   70.4968   -3.2794 O.3     1  UNL1       -0.4371
      3 O          21.8005   70.0010   -1.1193 O.2     1  UNL1       -0.5170
      4 O          20.8040   71.7691   -2.6200 O.3     1  UNL1       -0.3112
      5 C          20.0263   72.2902   -1.5406 C.3     1  UNL1        0.1811
      6 C          21.7276   74.2987    0.9105 C.3     1  UNL1        0.2383
      7 C          22.8627   73.6995    0.0419 C.3     1  UNL1        0.1895
      8 O          23.9799   74.5880   -0.0212 O.3     1  UNL1       -0.3779
      9 C          22.1801   73.5712   -1.3420 C.3     1  UNL1        0.1713
     10 C          20.6734   73.5762   -1.0205 C.3     1  UNL1        0.1764
     11 O          20.5409   73.6468    0.4081 O.3     1  UNL1       -0.3308
     12 O          22.5189   74.6846   -2.1705 O.3     1  UNL1       -0.3794
     13 H          24.7164   74.2572   -0.5530 H       1  UNL1        0.2106
     14 H          23.4642   74.7643   -2.3563 H       1  UNL1        0.2105
     15 N          21.9347   73.9760    2.3240 N.ar    1  UNL1       -0.2551
     16 C          21.6542   72.7398    2.7734 C.ar    1  UNL1        0.3323
     17 N          21.8347   72.4155    4.0674 N.ar    1  UNL1       -0.2743
     18 C          22.3047   73.3322    4.9377 C.ar    1  UNL1        0.2626
     19 C          22.6051   74.6371    4.4781 C.ar    1  UNL1        0.0795
     20 C          22.4185   74.9333    3.1746 C.ar    1  UNL1        0.0869
     21 O          21.2299   71.9031    1.9999 O.2     1  UNL1       -0.2464
     22 O          22.4689   73.0399    6.1090 O.2     1  UNL1       -0.2670
     23 H          21.6263   71.5200    4.3750 H       1  UNL1        0.1734
     24 O          20.7099   69.2199   -3.2575 O.3     1  UNL1       -0.2703
     25 P          19.1293   68.9643   -3.4287 P.3     1  UNL1        0.2208
     26 O          18.8786   67.4387   -3.8797 O.3     1  UNL1       -0.4371
     27 O          18.4462   69.2159   -2.1409 O.2     1  UNL1       -0.5170
     28 O          18.5433   69.9593   -4.5509 O.3     1  UNL1       -0.2865
     29 C          17.1693   69.9681   -4.9425 C.3     1  UNL1        0.2611
     30 C          16.9951   70.8571   -6.1762 C.3     1  UNL1        0.1582
     31 C          17.3860   72.2944   -5.8185 C.3     1  UNL1        0.1625
     32 C          16.5321   72.7656   -4.6382 C.3     1  UNL1        0.1686
     33 C          16.7243   71.8027   -3.4635 C.3     1  UNL1        0.1760
     34 O          17.1566   73.1454   -6.9438 O.3     1  UNL1       -0.3801
     35 O          15.1558   72.7836   -5.0215 O.3     1  UNL1       -0.3794
     36 O          16.3726   70.4793   -3.8719 O.3     1  UNL1       -0.3263
     37 H          17.3838   74.0724   -6.7881 H       1  UNL1        0.2105
     38 H          14.5553   73.0724   -4.3201 H       1  UNL1        0.2105
     39 C          19.0852   70.8963   -7.4283 C.2     1  UNL1        0.2231
     40 C          19.9717   70.3956   -8.5382 C.3     1  UNL1        0.0946
     41 N          17.8567   70.3697   -7.2562 N.am    1  UNL1       -0.2994
     42 O          19.4768   71.7745   -6.6882 O.2     1  UNL1       -0.2751
     43 H          17.5428   69.6682   -7.8483 H       1  UNL1        0.1496
     44 C          15.8287   72.2328   -2.3001 C.3     1  UNL1        0.1693
     45 O          14.5695   71.5635   -2.3947 O.3     1  UNL1       -0.3794
     46 H          13.9496   71.7889   -1.6877 H       1  UNL1        0.2105
@<TRIPOS>BOND
     1    29    30    1
     2    30    41    1
     3    30    31    1
     4    31    34    1
     5    31    32    1
     6    32    35    1
     7    32    33    1
     8    33    36    1
     9    33    44    1
    10    39    40    1
    11    39    42    2
    12    39    41   am
    13    41    43    1
    14    29    28    1
    15    34    37    1
    16    35    38    1
    17    29    36    1
    18    44    45    1
    19    45    46    1
    20    15     6    1
    21    15    16   ar
    22    16    21    2
    23    16    17   ar
    24    17    23    1
    25    17    18   ar
    26    18    19   ar
    27    19    20   ar
    28    15    20   ar
    29    18    22    2
    30     6     7    1
    31     6    11    1
    32     7     9    1
    33     7     8    1
    34     8    13    1
    35     9    10    1
    36     9    12    1
    37    10     5    1
    38    10    11    1
    39    12    14    1
    40     5     4    1
    41     4     1    1
    42     1     2    1
    43     1    24    1
    44     1     3    2
    45    24    25    1
    46    28    25    1
    47    25    26    1
    48    25    27    2
@<TRIPOS>MOLECULE
UD2
 46 48 0 0 0
SMALL
GASTEIGER

@<TRIPOS>ATOM
      1 P          21.4484   70.4018   -2.0515 P.3     1  UNL1        0.2189
      2 O          22.9630   70.6991   -2.5088 O.3     1  UNL1       -0.4371
      3 O          21.4543   69.4920   -0.8849 O.2     1  UNL1       -0.5170
      4 O          20.7280   71.7851   -1.6498 O.3     1  UNL1       -0.3112
      5 C          20.7641   72.9491   -2.4775 C.3     1  UNL1        0.1811
      6 C          22.2036   74.4925    0.4349 C.3     1  UNL1        0.2383
      7 C          23.4192   73.9560   -0.3629 C.3     1  UNL1        0.1895
      8 O          24.5690   74.7784   -0.1547 O.3     1  UNL1       -0.3779
      9 C          22.9213   74.0627   -1.8251 C.3     1  UNL1        0.1713
     10 C          21.3867   74.1099   -1.6978 C.3     1  UNL1        0.1764
     11 O          21.0691   73.9873   -0.3023 O.3     1  UNL1       -0.3308
     12 O          23.4103   75.2596   -2.4326 O.3     1  UNL1       -0.3794
     13 H          25.3558   74.4832   -0.6326 H       1  UNL1        0.2106
     14 H          24.3743   75.3096   -2.4848 H       1  UNL1        0.2105
     15 N          22.2089   73.9635    1.8007 N.ar    1  UNL1       -0.2551
     16 C          21.6223   72.7813    2.0597 C.ar    1  UNL1        0.3323
     17 N          21.6120   72.2713    3.3055 N.ar    1  UNL1       -0.2743
     18 C          22.1957   72.9429    4.3188 C.ar    1  UNL1        0.2626
     19 C          22.8177   74.1881    4.0602 C.ar    1  UNL1        0.0795
     20 C          22.8168   74.6736    2.8009 C.ar    1  UNL1        0.0869
     21 O          21.0923   72.1646    1.1557 O.2     1  UNL1       -0.2464
     22 O          22.1874   72.4822    5.4467 O.2     1  UNL1       -0.2670
     23 H          21.1836   71.4181    3.4751 H       1  UNL1        0.1734
     24 O          20.6462   69.7128   -3.2660 O.3     1  UNL1       -0.2703
     25 P          19.0921   69.3921   -3.5398 P.3     1  UNL1        0.2208
     26 O          18.8994   67.8059   -3.7413 O.3     1  UNL1       -0.4371
     27 O          18.2842   69.8438   -2.3859 O.2     1  UNL1       -0.5170
     28 O          18.6107   70.1646   -4.8680 O.3     1  UNL1       -0.2865
     29 C          19.2793   71.3171   -5.3837 C.3     1  UNL1        0.2611
     30 C          18.2885   72.4790   -5.4879 C.3     1  UNL1        0.1582
     31 C          17.1782   72.1050   -6.4747 C.3     1  UNL1        0.1625
     32 C          17.8075   71.7558   -7.8262 C.3     1  UNL1        0.1686
     33 C          18.8171   70.6214   -7.6317 C.3     1  UNL1        0.1760
     34 O          16.2884   73.2123   -6.6341 O.3     1  UNL1       -0.3801
     35 O          18.4743   72.9041   -8.3536 O.3     1  UNL1       -0.3794
     36 O          19.8044   71.0225   -6.6797 O.3     1  UNL1       -0.3263
     37 H          15.5588   73.0450   -7.2463 H       1  UNL1        0.2105
     38 H          18.8978   72.7548   -9.2105 H       1  UNL1        0.2105
     39 C          16.5286   72.1797   -3.8292 C.2     1  UNL1        0.2231
     40 C          15.9274   72.4508   -2.4751 C.3     1  UNL1        0.0946
     41 N          17.7041   72.7434   -4.1706 N.am    1  UNL1       -0.2994
     42 O          15.9547   71.4534   -4.6136 O.2     1  UNL1       -0.2751
     43 H          18.1629   73.3250   -3.5442 H       1  UNL1        0.1496
     44 C          19.4940   70.3069   -8.9672 C.3     1  UNL1        0.1693
     45 O          18.5617   70.5031  -10.0324 O.3     1  UNL1       -0.3794
     46 H          18.9232   70.3216  -10.9107 H       1  UNL1        0.2105
@<TRIPOS>BOND
     1    29    30    1
     2    30    41    1
     3    30    31    1
     4    31    34    1
     5    31    32    1
     6    32    35    1
     7    32    33    1
     8    33    36    1
     9    33    44    1
    10    39    40    1
    11    39    42    2
    12    39    41   am
    13    41    43    1
    14    29    28    1
    15    34    37    1
    16    35    38    1
    17    29    36    1
    18    44    45    1
    19    45    46    1
    20    15     6    1
    21    15    16   ar
    22    16    21    2
    23    16    17   ar
    24    17    23    1
    25    17    18   ar
    26    18    19   ar
    27    19    20   ar
    28    15    20   ar
    29    18    22    2
    30     6     7    1
    31     6    11    1
    32     7     9    1
    33     7     8    1
    34     8    13    1
    35     9    10    1
    36     9    12    1
    37    10     5    1
    38    10    11    1
    39    12    14    1
    40     5     4    1
    41     4     1    1
    42     1     2    1
    43     1    24    1
    44     1     3    2
    45    24    25    1
    46    28    25    1
    47    25    26    1
    48    25    27    2
@<TRIPOS>MOLECULE
UD2
 46 48 0 0 0
SMALL
GASTEIGER

@<TRIPOS>ATOM
      1 P          22.7588   71.9149   -3.3418 P.3     1  UNL1        0.2189
      2 O          23.5048   70.4995   -3.1642 O.3     1  UNL1       -0.4371
      3 O          23.3005   72.6133   -4.5282 O.2     1  UNL1       -0.5170
      4 O          21.1796   71.6680   -3.5389 O.3     1  UNL1       -0.3112
      5 C          20.1885   72.2735   -2.7068 C.3     1  UNL1        0.1811
      6 C          17.9455   71.3611   -5.3664 C.3     1  UNL1        0.2383
      7 C          18.0390   70.0913   -4.4826 C.3     1  UNL1        0.1895
      8 O          16.8193   69.3483   -4.5267 O.3     1  UNL1       -0.3779
      9 C          18.2696   70.6916   -3.0741 C.3     1  UNL1        0.1713
     10 C          18.8104   72.1072   -3.3520 C.3     1  UNL1        0.1764
     11 O          18.9173   72.2522   -4.7771 O.3     1  UNL1       -0.3308
     12 O          17.0383   70.7588   -2.3528 O.3     1  UNL1       -0.3794
     13 H          16.8287   68.5443   -3.9898 H       1  UNL1        0.2106
     14 H          16.6230   69.8991   -2.2012 H       1  UNL1        0.2105
     15 N          18.3024   71.0521   -6.7528 N.ar    1  UNL1       -0.2551
     16 C          17.3369   70.7411   -7.6359 C.ar    1  UNL1        0.3323
     17 N          17.6359   70.4526   -8.9164 N.ar    1  UNL1       -0.2743
     18 C          18.9176   70.4732   -9.3352 C.ar    1  UNL1        0.2626
     19 C          19.9440   70.7998   -8.4165 C.ar    1  UNL1        0.0795
     20 C          19.6149   71.0890   -7.1399 C.ar    1  UNL1        0.0869
     21 O          16.1768   70.7189   -7.2723 O.2     1  UNL1       -0.2464
     22 O          19.1896   70.2126  -10.4939 O.2     1  UNL1       -0.2670
     23 H          16.9277   70.2293   -9.5398 H       1  UNL1        0.1734
     24 O          23.0005   72.8176   -2.0303 O.3     1  UNL1       -0.2703
     25 P          23.3246   74.3765   -1.7904 P.3     1  UNL1        0.2208
     26 O          22.4167   75.2707   -2.7752 O.3     1  UNL1       -0.4371
     27 O          23.0257   74.7324   -0.3860 O.2     1  UNL1       -0.5170
     28 O          24.8812   74.6540   -2.0952 O.3     1  UNL1       -0.2865
     29 C          25.3923   75.9482   -2.4191 C.3     1  UNL1        0.2611
     30 C          25.8940   75.9526   -3.8651 C.3     1  UNL1        0.1582
     31 C          27.0449   74.9508   -4.0001 C.3     1  UNL1        0.1625
     32 C          28.1468   75.3180   -3.0024 C.3     1  UNL1        0.1686
     33 C          27.5581   75.3380   -1.5892 C.3     1  UNL1        0.1760
     34 O          27.5681   75.0014   -5.3294 O.3     1  UNL1       -0.3801
     35 O          28.6690   76.6091   -3.3212 O.3     1  UNL1       -0.3794
     36 O          26.4731   76.2667   -1.5401 O.3     1  UNL1       -0.3263
     37 H          28.3012   74.3906   -5.4867 H       1  UNL1        0.2105
     38 H          29.3726   76.9070   -2.7278 H       1  UNL1        0.2105
     39 C          24.3290   76.4498   -5.6655 C.2     1  UNL1        0.2231
     40 C          23.2067   76.0550   -6.5891 C.3     1  UNL1        0.0946
     41 N          24.8021   75.5678   -4.7630 N.am    1  UNL1       -0.2994
     42 O          24.8078   77.5626   -5.7336 O.2     1  UNL1       -0.2751
     43 H          24.4189   74.6784   -4.7076 H       1  UNL1        0.1496
     44 C          28.6386   75.7624   -0.5928 C.3     1  UNL1        0.1693
     45 O          28.6166   77.1833   -0.4415 O.3     1  UNL1       -0.3794
     46 H          29.2771   77.5238    0.1772 H       1  UNL1        0.2105
@<TRIPOS>BOND
     1    29    30    1
     2    30    41    1
     3    30    31    1
     4    31    34    1
     5    31    32    1
     6    32    35    1
     7    32    33    1
     8    33    36    1
     9    33    44    1
    10    39    40    1
    11    39    42    2
    12    39    41   am
    13    41    43    1
    14    29    28    1
    15    34    37    1
    16    35    38    1
    17    29    36    1
    18    44    45    1
    19    45    46    1
    20    15     6    1
    21    15    16   ar
    22    16    21    2
    23    16    17   ar
    24    17    23    1
    25    17    18   ar
    26    18    19   ar
    27    19    20   ar
    28    15    20   ar
    29    18    22    2
    30     6     7    1
    31     6    11    1
    32     7     9    1
    33     7     8    1
    34     8    13    1
    35     9    10    1
    36     9    12    1
    37    10     5    1
    38    10    11    1
    39    12    14    1
    40     5     4    1
    41     4     1    1
    42     1     2    1
    43     1    24    1
    44     1     3    2
    45    24    25    1
    46    28    25    1
    47    25    26    1
    48    25    27    2
@<TRIPOS>MOLECULE
UD2
 46 48 0 0 0
SMALL
GASTEIGER

@<TRIPOS>ATOM
      1 P          20.8493   70.6816   -2.3366 P.3     1  UNL1        0.2189
      2 O          21.1194   69.4482   -3.3352 O.3     1  UNL1       -0.4371
      3 O          19.4656   71.1720   -2.5203 O.2     1  UNL1       -0.5170
      4 O          21.0481   70.1932   -0.8148 O.3     1  UNL1       -0.3112
      5 C          21.7951   70.9379    0.1490 C.3     1  UNL1        0.1811
      6 C          20.8897   73.6949    2.2740 C.3     1  UNL1        0.2383
      7 C          22.0740   74.2275    1.4280 C.3     1  UNL1        0.1895
      8 O          21.9547   75.6350    1.2126 O.3     1  UNL1       -0.3779
      9 C          21.9017   73.4490    0.1008 C.3     1  UNL1        0.1713
     10 C          21.0454   72.2284    0.4886 C.3     1  UNL1        0.1764
     11 O          20.8136   72.3009    1.9044 O.3     1  UNL1       -0.3308
     12 O          21.2203   74.2524   -0.8640 O.3     1  UNL1       -0.3794
     13 H          22.6727   76.0152    0.6886 H       1  UNL1        0.2106
     14 H          21.6876   75.0647   -1.1011 H       1  UNL1        0.2105
     15 N          21.1731   73.8351    3.7041 N.ar    1  UNL1       -0.2551
     16 C          21.9817   72.9498    4.3131 C.ar    1  UNL1        0.3323
     17 N          22.2594   73.0543    5.6262 N.ar    1  UNL1       -0.2743
     18 C          21.7279   74.0570    6.3546 C.ar    1  UNL1        0.2626
     19 C          20.8758   74.9967    5.7261 C.ar    1  UNL1        0.0795
     20 C          20.6181   74.8702    4.4074 C.ar    1  UNL1        0.0869
     21 O          22.4681   72.0406    3.6687 O.2     1  UNL1       -0.2464
     22 O          21.9788   74.1530    7.5431 O.2     1  UNL1       -0.2670
     23 H          22.8435   72.4066    6.0499 H       1  UNL1        0.1734
     24 O          21.8874   71.8700   -2.6580 O.3     1  UNL1       -0.2703
     25 P          22.2448   72.7145   -3.9816 P.3     1  UNL1        0.2208
     26 O          21.9465   74.2752   -3.7187 O.3     1  UNL1       -0.4371
     27 O          23.6760   72.5350   -4.3102 O.2     1  UNL1       -0.5170
     28 O          21.3424   72.1947   -5.2097 O.3     1  UNL1       -0.2865
     29 C          20.1832   72.8898   -5.6727 C.3     1  UNL1        0.2611
     30 C          19.2570   71.9116   -6.3994 C.3     1  UNL1        0.1582
     31 C          19.9830   71.3496   -7.6256 C.3     1  UNL1        0.1625
     32 C          20.4204   72.5105   -8.5231 C.3     1  UNL1        0.1686
     33 C          21.3021   73.4657   -7.7143 C.3     1  UNL1        0.1760
     34 O          19.0997   70.4914   -8.3513 O.3     1  UNL1       -0.3801
     35 O          19.2675   73.2090   -8.9964 O.3     1  UNL1       -0.3794
     36 O          20.5782   73.9277   -6.5721 O.3     1  UNL1       -0.3263
     37 H          19.4949   70.0989   -9.1419 H       1  UNL1        0.2105
     38 H          19.4704   73.9597   -9.5720 H       1  UNL1        0.2105
     39 C          17.6400   70.3336   -5.4868 C.2     1  UNL1        0.2231
     40 C          17.2711   69.2056   -4.5594 C.3     1  UNL1        0.0946
     41 N          18.8988   70.8145   -5.4969 N.am    1  UNL1       -0.2994
     42 O          16.8036   70.8101   -6.2254 O.2     1  UNL1       -0.2751
     43 H          19.5676   70.4346   -4.9058 H       1  UNL1        0.1496
     44 C          21.6945   74.6594   -8.5869 C.3     1  UNL1        0.1693
     45 O          20.5976   75.5718   -8.6686 O.3     1  UNL1       -0.3794
     46 H          20.7756   76.3545   -9.2077 H       1  UNL1        0.2105
@<TRIPOS>BOND
     1    29    30    1
     2    30    41    1
     3    30    31    1
     4    31    34    1
     5    31    32    1
     6    32    35    1
     7    32    33    1
     8    33    36    1
     9    33    44    1
    10    39    40    1
    11    39    42    2
    12    39    41   am
    13    41    43    1
    14    29    28    1
    15    34    37    1
    16    35    38    1
    17    29    36    1
    18    44    45    1
    19    45    46    1
    20    15     6    1
    21    15    16   ar
    22    16    21    2
    23    16    17   ar
    24    17    23    1
    25    17    18   ar
    26    18    19   ar
    27    19    20   ar
    28    15    20   ar
    29    18    22    2
    30     6     7    1
    31     6    11    1
    32     7     9    1
    33     7     8    1
    34     8    13    1
    35     9    10    1
    36     9    12    1
    37    10     5    1
    38    10    11    1
    39    12    14    1
    40     5     4    1
    41     4     1    1
    42     1     2    1
    43     1    24    1
    44     1     3    2
    45    24    25    1
    46    28    25    1
    47    25    26    1
    48    25    27    2
@<TRIPOS>MOLECULE
UD2
 46 48 0 0 0
SMALL
GASTEIGER

@<TRIPOS>ATOM
      1 P          22.5370   71.7177   -3.1832 P.3     1  UNL1        0.2189
      2 O          23.5949   70.5048   -3.1522 O.3     1  UNL1       -0.4371
      3 O          21.2254   71.2418   -2.6911 O.2     1  UNL1       -0.5170
      4 O          23.0628   72.9125   -2.2401 O.3     1  UNL1       -0.3112
      5 C          22.2914   73.4505   -1.1645 C.3     1  UNL1        0.1811
      6 C          22.7757   73.1753    2.3889 C.3     1  UNL1        0.2383
      7 C          21.2935   72.7812    2.1659 C.3     1  UNL1        0.1895
      8 O          20.8653   71.8320    3.1444 O.3     1  UNL1       -0.3779
      9 C          21.3355   72.1410    0.7567 C.3     1  UNL1        0.1713
     10 C          22.6257   72.7005    0.1274 C.3     1  UNL1        0.1764
     11 O          23.2095   73.6037    1.0797 O.3     1  UNL1       -0.3308
     12 O          21.4041   70.7177    0.8572 O.3     1  UNL1       -0.3794
     13 H          19.9443   71.5548    3.0472 H       1  UNL1        0.2106
     14 H          20.6436   70.3168    1.2993 H       1  UNL1        0.2105
     15 N          22.8780   74.2741    3.3518 N.ar    1  UNL1       -0.2551
     16 C          21.9365   75.2344    3.3697 C.ar    1  UNL1        0.3323
     17 N          22.0054   76.2559    4.2437 N.ar    1  UNL1       -0.2743
     18 C          23.0264   76.3304    5.1217 C.ar    1  UNL1        0.2626
     19 C          24.0238   75.3259    5.1146 C.ar    1  UNL1        0.0795
     20 C          23.9274   74.3109    4.2303 C.ar    1  UNL1        0.0869
     21 O          21.0102   75.1799    2.5840 O.2     1  UNL1       -0.2464
     22 O          23.0896   77.2543    5.9135 O.2     1  UNL1       -0.2670
     23 H          21.3188   76.9406    4.2423 H       1  UNL1        0.1734
     24 O          22.3810   72.2557   -4.6930 O.3     1  UNL1       -0.2703
     25 P          21.2747   73.1439   -5.4546 P.3     1  UNL1        0.2208
     26 O          20.9114   74.4318   -4.5584 O.3     1  UNL1       -0.4371
     27 O          21.8109   73.5875   -6.7600 O.2     1  UNL1       -0.5170
     28 O          19.9481   72.2622   -5.6903 O.3     1  UNL1       -0.2865
     29 C          18.7441   72.7993   -6.2409 C.3     1  UNL1        0.2611
     30 C          17.5575   71.9274   -5.8231 C.3     1  UNL1        0.1582
     31 C          17.7432   70.5190   -6.3962 C.3     1  UNL1        0.1625
     32 C          17.8870   70.6133   -7.9176 C.3     1  UNL1        0.1686
     33 C          19.0612   71.5361   -8.2547 C.3     1  UNL1        0.1760
     34 O          16.6041   69.7182   -6.0728 O.3     1  UNL1       -0.3801
     35 O          16.6852   71.1443   -8.4789 O.3     1  UNL1       -0.3794
     36 O          18.8403   72.8196   -7.6666 O.3     1  UNL1       -0.3263
     37 H          16.6544   68.8113   -6.4047 H       1  UNL1        0.2105
     38 H          16.7057   71.2327   -9.4421 H       1  UNL1        0.2105
     39 C          16.3359   72.1228   -3.7238 C.2     1  UNL1        0.2231
     40 C          16.2687   72.0500   -2.2209 C.3     1  UNL1        0.0946
     41 N          17.4931   71.8566   -4.3612 N.am    1  UNL1       -0.2994
     42 O          15.3478   72.4212   -4.3616 O.2     1  UNL1       -0.2751
     43 H          18.2835   71.6189   -3.8516 H       1  UNL1        0.1496
     44 C          19.1744   71.6832   -9.7732 C.3     1  UNL1        0.1693
     45 O          18.7712   70.4648  -10.4019 O.3     1  UNL1       -0.3794
     46 H          18.8176   70.4856  -11.3675 H       1  UNL1        0.2105
@<TRIPOS>BOND
     1    29    30    1
     2    30    41    1
     3    30    31    1
     4    31    34    1
     5    31    32    1
     6    32    35    1
     7    32    33    1
     8    33    36    1
     9    33    44    1
    10    39    40    1
    11    39    42    2
    12    39    41   am
    13    41    43    1
    14    29    28    1
    15    34    37    1
    16    35    38    1
    17    29    36    1
    18    44    45    1
    19    45    46    1
    20    15     6    1
    21    15    16   ar
    22    16    21    2
    23    16    17   ar
    24    17    23    1
    25    17    18   ar
    26    18    19   ar
    27    19    20   ar
    28    15    20   ar
    29    18    22    2
    30     6     7    1
    31     6    11    1
    32     7     9    1
    33     7     8    1
    34     8    13    1
    35     9    10    1
    36     9    12    1
    37    10     5    1
    38    10    11    1
    39    12    14    1
    40     5     4    1
    41     4     1    1
    42     1     2    1
    43     1    24    1
    44     1     3    2
    45    24    25    1
    46    28    25    1
    47    25    26    1
    48    25    27    2
@<TRIPOS>MOLECULE
UD2
 46 48 0 0 0
SMALL
GASTEIGER

@<TRIPOS>ATOM
      1 P          20.6198   70.1184   -2.4497 P.3     1  UNL1        0.2189
      2 O          20.3276   68.7464   -3.2396 O.3     1  UNL1       -0.4371
      3 O          19.3402   70.7980   -2.1504 O.2     1  UNL1       -0.5170
      4 O          21.3888   69.7915   -1.0730 O.3     1  UNL1       -0.3112
      5 C          22.3775   70.6563   -0.5108 C.3     1  UNL1        0.1811
      6 C          21.4968   73.5186    1.4811 C.3     1  UNL1        0.2383
      7 C          22.8827   73.8712    0.8835 C.3     1  UNL1        0.1895
      8 O          23.0096   75.2808    0.6866 O.3     1  UNL1       -0.3779
      9 C          22.8516   73.1247   -0.4726 C.3     1  UNL1        0.1713
     10 C          21.7712   72.0430   -0.2824 C.3     1  UNL1        0.1764
     11 O          21.2914   72.1503    1.0674 O.3     1  UNL1       -0.3308
     12 O          22.4857   74.0180   -1.5256 O.3     1  UNL1       -0.3794
     13 H          23.8601   75.5513    0.3150 H       1  UNL1        0.2106
     14 H          23.1011   74.7530   -1.6506 H       1  UNL1        0.2105
     15 N          21.5247   73.6177    2.9420 N.ar    1  UNL1       -0.2551
     16 C          21.9991   72.5915    3.6706 C.ar    1  UNL1        0.3323
     17 N          22.0363   72.6550    5.0147 N.ar    1  UNL1       -0.2743
     18 C          21.5968   73.7578    5.6545 C.ar    1  UNL1        0.2626
     19 C          21.0958   74.8458    4.9001 C.ar    1  UNL1        0.0795
     20 C          21.0741   74.7565    3.5536 C.ar    1  UNL1        0.0869
     21 O          22.3989   71.5910    3.1070 O.2     1  UNL1       -0.2464
     22 O          21.6303   73.8167    6.8711 O.2     1  UNL1       -0.2670
     23 H          22.3804   71.9057    5.5248 H       1  UNL1        0.1734
     24 O          21.5371   71.0779   -3.3613 O.3     1  UNL1       -0.2703
     25 P          21.2214   72.2181   -4.4536 P.3     1  UNL1        0.2208
     26 O          20.6493   73.5279   -3.7115 O.3     1  UNL1       -0.4371
     27 O          22.4637   72.5653   -5.1779 O.2     1  UNL1       -0.5170
     28 O          20.1254   71.6711   -5.4987 O.3     1  UNL1       -0.2865
     29 C          19.1414   72.5107   -6.1056 C.3     1  UNL1        0.2611
     30 C          17.7469   71.9391   -5.8388 C.3     1  UNL1        0.1582
     31 C          17.6397   70.5546   -6.4855 C.3     1  UNL1        0.1625
     32 C          17.9403   70.6772   -7.9818 C.3     1  UNL1        0.1686
     33 C          19.3278   71.2976   -8.1659 C.3     1  UNL1        0.1760
     34 O          16.3168   70.0444   -6.3043 O.3     1  UNL1       -0.3801
     35 O          16.9580   71.5108   -8.5995 O.3     1  UNL1       -0.3794
     36 O          19.3696   72.5691   -7.5151 O.3     1  UNL1       -0.3263
     37 H          16.1774   69.1683   -6.6892 H       1  UNL1        0.2105
     38 H          17.0871   71.6335   -9.5505 H       1  UNL1        0.2105
     39 C          16.3249   72.0978   -3.8664 C.2     1  UNL1        0.2231
     40 C          16.1052   71.9779   -2.3811 C.3     1  UNL1        0.0946
     41 N          17.5340   71.8225   -4.3940 N.am    1  UNL1       -0.2994
     42 O          15.4130   72.4424   -4.5888 O.2     1  UNL1       -0.2751
     43 H          18.2636   71.5479   -3.8166 H       1  UNL1        0.1496
     44 C          19.6113   71.4786   -9.6584 C.3     1  UNL1        0.1693
     45 O          18.8670   70.5143  -10.4057 O.3     1  UNL1       -0.3794
     46 H          18.9984   70.5704  -11.3621 H       1  UNL1        0.2105
@<TRIPOS>BOND
     1    29    30    1
     2    30    41    1
     3    30    31    1
     4    31    34    1
     5    31    32    1
     6    32    35    1
     7    32    33    1
     8    33    36    1
     9    33    44    1
    10    39    40    1
    11    39    42    2
    12    39    41   am
    13    41    43    1
    14    29    28    1
    15    34    37    1
    16    35    38    1
    17    29    36    1
    18    44    45    1
    19    45    46    1
    20    15     6    1
    21    15    16   ar
    22    16    21    2
    23    16    17   ar
    24    17    23    1
    25    17    18   ar
    26    18    19   ar
    27    19    20   ar
    28    15    20   ar
    29    18    22    2
    30     6     7    1
    31     6    11    1
    32     7     9    1
    33     7     8    1
    34     8    13    1
    35     9    10    1
    36     9    12    1
    37    10     5    1
    38    10    11    1
    39    12    14    1
    40     5     4    1
    41     4     1    1
    42     1     2    1
    43     1    24    1
    44     1     3    2
    45    24    25    1
    46    28    25    1
    47    25    26    1
    48    25    27    2
@<TRIPOS>MOLECULE
UD2
 46 48 0 0 0
SMALL
GASTEIGER

@<TRIPOS>ATOM
      1 P          19.5252   70.0304   -2.7739 P.3     1  UNL1        0.2189
      2 O          18.1513   69.1920   -2.8035 O.3     1  UNL1       -0.4371
      3 O          20.4013   69.5821   -3.8786 O.2     1  UNL1       -0.5170
      4 O          19.2008   71.5982   -2.9485 O.3     1  UNL1       -0.3112
      5 C          17.8700   72.1128   -3.0238 C.3     1  UNL1        0.1811
      6 C          17.9047   73.2279   -6.4432 C.3     1  UNL1        0.2383
      7 C          16.4066   72.9881   -6.1267 C.3     1  UNL1        0.1895
      8 O          15.5779   73.8775   -6.8776 O.3     1  UNL1       -0.3779
      9 C          16.3376   73.3132   -4.6144 C.3     1  UNL1        0.1713
     10 C          17.7931   73.1669   -4.1310 C.3     1  UNL1        0.1764
     11 O          18.5786   72.7494   -5.2589 O.3     1  UNL1       -0.3308
     12 O          15.8747   74.6495   -4.4120 O.3     1  UNL1       -0.3794
     13 H          14.6316   73.7658   -6.7145 H       1  UNL1        0.2106
     14 H          14.9846   74.8139   -4.7513 H       1  UNL1        0.2105
     15 N          18.3139   72.4548   -7.6179 N.ar    1  UNL1       -0.2551
     16 C          18.3356   73.0420   -8.8276 C.ar    1  UNL1        0.3323
     17 N          18.7072   72.3556   -9.9244 N.ar    1  UNL1       -0.2743
     18 C          19.0675   71.0599   -9.8245 C.ar    1  UNL1        0.2626
     19 C          19.0502   70.4294   -8.5571 C.ar    1  UNL1        0.0795
     20 C          18.6774   71.1429   -7.4738 C.ar    1  UNL1        0.0869
     21 O          18.0136   74.2098   -8.9326 O.2     1  UNL1       -0.2464
     22 O          19.4044   70.4376  -10.8163 O.2     1  UNL1       -0.2670
     23 H          18.7161   72.7940  -10.7892 H       1  UNL1        0.1734
     24 O          20.2703   69.7908   -1.3665 O.3     1  UNL1       -0.2703
     25 P          21.5599   70.4457   -0.6587 P.3     1  UNL1        0.2208
     26 O          21.8029   69.7419    0.7694 O.3     1  UNL1       -0.4371
     27 O          22.7488   70.2446   -1.5157 O.2     1  UNL1       -0.5170
     28 O          21.3121   72.0223   -0.4452 O.3     1  UNL1       -0.2865
     29 C          22.3177   72.9084    0.0495 C.3     1  UNL1        0.2611
     30 C          21.6668   74.2158    0.5074 C.3     1  UNL1        0.1582
     31 C          21.0008   74.8928   -0.6946 C.3     1  UNL1        0.1625
     32 C          22.0506   75.1181   -1.7862 C.3     1  UNL1        0.1686
     33 C          22.6868   73.7755   -2.1558 C.3     1  UNL1        0.1760
     34 O          20.4536   76.1502   -0.2913 O.3     1  UNL1       -0.3801
     35 O          23.0585   76.0081   -1.3032 O.3     1  UNL1       -0.3794
     36 O          23.2608   73.1848   -0.9880 O.3     1  UNL1       -0.3263
     37 H          20.0148   76.6345   -1.0042 H       1  UNL1        0.2105
     38 H          23.7585   76.1957   -1.9442 H       1  UNL1        0.2105
     39 C          20.8985   74.2304    2.8198 C.2     1  UNL1        0.2231
     40 C          19.8606   73.9351    3.8706 C.3     1  UNL1        0.0946
     41 N          20.6568   73.9281    1.5289 N.am    1  UNL1       -0.2994
     42 O          21.9532   74.7407    3.1352 O.2     1  UNL1       -0.2751
     43 H          19.8141   73.5191    1.2765 H       1  UNL1        0.1496
     44 C          23.7788   74.0001   -3.2034 C.3     1  UNL1        0.1693
     45 O          23.8840   72.8447   -4.0380 O.3     1  UNL1       -0.3794
     46 H          24.5587   72.9166   -4.7269 H       1  UNL1        0.2105
@<TRIPOS>BOND
     1    29    30    1
     2    30    41    1
     3    30    31    1
     4    31    34    1
     5    31    32    1
     6    32    35    1
     7    32    33    1
     8    33    36    1
     9    33    44    1
    10    39    40    1
    11    39    42    2
    12    39    41   am
    13    41    43    1
    14    29    28    1
    15    34    37    1
    16    35    38    1
    17    29    36    1
    18    44    45    1
    19    45    46    1
    20    15     6    1
    21    15    16   ar
    22    16    21    2
    23    16    17   ar
    24    17    23    1
    25    17    18   ar
    26    18    19   ar
    27    19    20   ar
    28    15    20   ar
    29    18    22    2
    30     6     7    1
    31     6    11    1
    32     7     9    1
    33     7     8    1
    34     8    13    1
    35     9    10    1
    36     9    12    1
    37    10     5    1
    38    10    11    1
    39    12    14    1
    40     5     4    1
    41     4     1    1
    42     1     2    1
    43     1    24    1
    44     1     3    2
    45    24    25    1
    46    28    25    1
    47    25    26    1
    48    25    27    2
@<TRIPOS>MOLECULE
UD2
 46 48 0 0 0
SMALL
GASTEIGER

@<TRIPOS>ATOM
      1 P          23.0237   72.6986   -3.8801 P.3     1  UNL1        0.2189
      2 O          24.2684   73.6773   -3.5901 O.3     1  UNL1       -0.4371
      3 O          23.4337   71.2960   -3.6484 O.2     1  UNL1       -0.5170
      4 O          21.8066   73.0719   -2.8937 O.3     1  UNL1       -0.3112
      5 C          21.9987   73.7049   -1.6273 C.3     1  UNL1        0.1811
      6 C          23.0600   72.3111    1.5140 C.3     1  UNL1        0.2383
      7 C          22.0178   71.3004    0.9714 C.3     1  UNL1        0.1895
      8 O          22.3218   69.9728    1.4037 O.3     1  UNL1       -0.3779
      9 C          22.1984   71.4375   -0.5602 C.3     1  UNL1        0.1713
     10 C          22.8692   72.8130   -0.7386 C.3     1  UNL1        0.1764
     11 O          22.9968   73.3992    0.5666 O.3     1  UNL1       -0.3308
     12 O          23.0446   70.3996   -1.0577 O.3     1  UNL1       -0.3794
     13 H          21.6977   69.3042    1.0903 H       1  UNL1        0.2106
     14 H          22.6982   69.5080   -0.9184 H       1  UNL1        0.2105
     15 N          22.6847   72.7701    2.8532 N.ar    1  UNL1       -0.2551
     16 C          21.4341   72.5632    3.3025 C.ar    1  UNL1        0.3323
     17 N          21.0616   72.9745    4.5290 N.ar    1  UNL1       -0.2743
     18 C          21.9446   73.6030    5.3313 C.ar    1  UNL1        0.2626
     19 C          23.2648   73.8264    4.8717 C.ar    1  UNL1        0.0795
     20 C          23.6120   73.3996    3.6393 C.ar    1  UNL1        0.0869
     21 O          20.6274   71.9976    2.5899 O.2     1  UNL1       -0.2464
     22 O          21.6088   73.9754    6.4418 O.2     1  UNL1       -0.2670
     23 H          20.1555   72.8184    4.8368 H       1  UNL1        0.1734
     24 O          22.5478   72.8735   -5.4086 O.3     1  UNL1       -0.2703
     25 P          21.1852   73.3754   -6.1046 P.3     1  UNL1        0.2208
     26 O          21.0264   74.9635   -5.8891 O.3     1  UNL1       -0.4371
     27 O          21.2318   73.0770   -7.5528 O.2     1  UNL1       -0.5170
     28 O          19.9313   72.6151   -5.4396 O.3     1  UNL1       -0.2865
     29 C          19.4065   71.3873   -5.9480 C.3     1  UNL1        0.2611
     30 C          17.8774   71.4520   -5.9627 C.3     1  UNL1        0.1582
     31 C          17.3681   71.6166   -4.5274 C.3     1  UNL1        0.1625
     32 C          17.8918   70.4574   -3.6752 C.3     1  UNL1        0.1686
     33 C          19.4208   70.4310   -3.7487 C.3     1  UNL1        0.1760
     34 O          15.9387   71.6043   -4.5239 O.3     1  UNL1       -0.3801
     35 O          17.3679   69.2245   -4.1721 O.3     1  UNL1       -0.3794
     36 O          19.8285   70.3072   -5.1127 O.3     1  UNL1       -0.3263
     37 H          15.5471   71.7052   -3.6454 H       1  UNL1        0.2105
     38 H          17.6597   68.4451   -3.6788 H       1  UNL1        0.2105
     39 C          16.4669   72.4416   -7.6858 C.2     1  UNL1        0.2231
     40 C          16.0204   73.6162   -8.5162 C.3     1  UNL1        0.0946
     41 N          17.4438   72.5950   -6.7702 N.am    1  UNL1       -0.2994
     42 O          15.9472   71.3562   -7.8410 O.2     1  UNL1       -0.2751
     43 H          17.8603   73.4623   -6.6465 H       1  UNL1        0.1496
     44 C          19.9492   69.2393   -2.9479 C.3     1  UNL1        0.1693
     45 O          21.3723   69.1794   -3.0647 O.3     1  UNL1       -0.3794
     46 H          21.7766   68.4462   -2.5810 H       1  UNL1        0.2105
@<TRIPOS>BOND
     1    29    30    1
     2    30    41    1
     3    30    31    1
     4    31    34    1
     5    31    32    1
     6    32    35    1
     7    32    33    1
     8    33    36    1
     9    33    44    1
    10    39    40    1
    11    39    42    2
    12    39    41   am
    13    41    43    1
    14    29    28    1
    15    34    37    1
    16    35    38    1
    17    29    36    1
    18    44    45    1
    19    45    46    1
    20    15     6    1
    21    15    16   ar
    22    16    21    2
    23    16    17   ar
    24    17    23    1
    25    17    18   ar
    26    18    19   ar
    27    19    20   ar
    28    15    20   ar
    29    18    22    2
    30     6     7    1
    31     6    11    1
    32     7     9    1
    33     7     8    1
    34     8    13    1
    35     9    10    1
    36     9    12    1
    37    10     5    1
    38    10    11    1
    39    12    14    1
    40     5     4    1
    41     4     1    1
    42     1     2    1
    43     1    24    1
    44     1     3    2
    45    24    25    1
    46    28    25    1
    47    25    26    1
    48    25    27    2
@<TRIPOS>MOLECULE
UD2
 46 48 0 0 0
SMALL
GASTEIGER

@<TRIPOS>ATOM
      1 P          20.6946   70.9062   -2.3198 P.3     1  UNL1        0.2189
      2 O          21.9080   69.9477   -2.7672 O.3     1  UNL1       -0.4371
      3 O          19.4059   70.2467   -2.6250 O.2     1  UNL1       -0.5170
      4 O          20.7907   71.1902   -0.7374 O.3     1  UNL1       -0.3112
      5 C          21.8081   72.0069   -0.1548 C.3     1  UNL1        0.1811
      6 C          22.0354   74.1022    2.7597 C.3     1  UNL1        0.2383
      7 C          21.6070   75.0630    1.6215 C.3     1  UNL1        0.1895
      8 O          20.8022   76.1288    2.1295 O.3     1  UNL1       -0.3779
      9 C          20.7761   74.1317    0.7052 C.3     1  UNL1        0.1713
     10 C          21.2480   72.7142    1.0817 C.3     1  UNL1        0.1764
     11 O          22.2783   72.8554    2.0726 O.3     1  UNL1       -0.3308
     12 O          19.3811   74.2827    0.9737 O.3     1  UNL1       -0.3794
     13 H          20.5098   76.7570    1.4553 H       1  UNL1        0.2106
     14 H          19.0425   75.1732    0.8103 H       1  UNL1        0.2105
     15 N          23.2586   74.5820    3.4067 N.ar    1  UNL1       -0.2551
     16 C          24.3182   74.9290    2.6546 C.ar    1  UNL1        0.3323
     17 N          25.4552   75.3730    3.2223 N.ar    1  UNL1       -0.2743
     18 C          25.5478   75.4786    4.5635 C.ar    1  UNL1        0.2626
     19 C          24.4397   75.1177    5.3674 C.ar    1  UNL1        0.0795
     20 C          23.3109   74.6798    4.7711 C.ar    1  UNL1        0.0869
     21 O          24.2488   74.8391    1.4440 O.2     1  UNL1       -0.2464
     22 O          26.5761   75.8807    5.0786 O.2     1  UNL1       -0.2670
     23 H          26.2102   75.6178    2.6654 H       1  UNL1        0.1734
     24 O          20.7877   72.2999   -3.1211 O.3     1  UNL1       -0.2703
     25 P          21.0825   72.6897   -4.6554 P.3     1  UNL1        0.2208
     26 O          20.9343   74.2825   -4.8419 O.3     1  UNL1       -0.4371
     27 O          22.4572   72.2775   -5.0140 O.2     1  UNL1       -0.5170
     28 O          20.0291   71.9366   -5.6122 O.3     1  UNL1       -0.2865
     29 C          18.9044   72.5927   -6.2004 C.3     1  UNL1        0.2611
     30 C          17.6213   71.8530   -5.8137 C.3     1  UNL1        0.1582
     31 C          17.6746   70.4286   -6.3748 C.3     1  UNL1        0.1625
     32 C          17.8711   70.4959   -7.8917 C.3     1  UNL1        0.1686
     33 C          19.1449   71.2881   -8.1983 C.3     1  UNL1        0.1760
     34 O          16.4489   69.7541   -6.0814 O.3     1  UNL1       -0.3801
     35 O          16.7484   71.1456   -8.4905 O.3     1  UNL1       -0.3794
     36 O          19.0432   72.5920   -7.6227 O.3     1  UNL1       -0.3263
     37 H          16.4133   68.8444   -6.4076 H       1  UNL1        0.2105
     38 H          16.8057   71.2241   -9.4530 H       1  UNL1        0.2105
     39 C          16.3183   72.0255   -3.7619 C.2     1  UNL1        0.2231
     40 C          16.2007   71.9714   -2.2613 C.3     1  UNL1        0.0946
     41 N          17.5078   71.8004   -4.3540 N.am    1  UNL1       -0.2994
     42 O          15.3418   72.2719   -4.4386 O.2     1  UNL1       -0.2751
     43 H          18.2890   71.6044   -3.8133 H       1  UNL1        0.1496
     44 C          19.3165   71.4110   -9.7135 C.3     1  UNL1        0.1693
     45 O          18.6576   70.3191  -10.3584 O.3     1  UNL1       -0.3794
     46 H          18.7253   70.3324  -11.3229 H       1  UNL1        0.2105
@<TRIPOS>BOND
     1    29    30    1
     2    30    41    1
     3    30    31    1
     4    31    34    1
     5    31    32    1
     6    32    35    1
     7    32    33    1
     8    33    36    1
     9    33    44    1
    10    39    40    1
    11    39    42    2
    12    39    41   am
    13    41    43    1
    14    29    28    1
    15    34    37    1
    16    35    38    1
    17    29    36    1
    18    44    45    1
    19    45    46    1
    20    15     6    1
    21    15    16   ar
    22    16    21    2
    23    16    17   ar
    24    17    23    1
    25    17    18   ar
    26    18    19   ar
    27    19    20   ar
    28    15    20   ar
    29    18    22    2
    30     6     7    1
    31     6    11    1
    32     7     9    1
    33     7     8    1
    34     8    13    1
    35     9    10    1
    36     9    12    1
    37    10     5    1
    38    10    11    1
    39    12    14    1
    40     5     4    1
    41     4     1    1
    42     1     2    1
    43     1    24    1
    44     1     3    2
    45    24    25    1
    46    28    25    1
    47    25    26    1
    48    25    27    2
@<TRIPOS>MOLECULE
UD2
 46 48 0 0 0
SMALL
GASTEIGER

@<TRIPOS>ATOM
      1 P          23.1742   72.9146   -3.2798 P.3     1  UNL1        0.2189
      2 O          23.3626   71.3326   -3.5107 O.3     1  UNL1       -0.4371
      3 O          23.1056   73.1973   -1.8292 O.2     1  UNL1       -0.5170
      4 O          24.4233   73.7029   -3.9219 O.3     1  UNL1       -0.3112
      5 C          24.5718   75.1216   -3.8404 C.3     1  UNL1        0.1811
      6 C          28.1403   75.3553   -4.2246 C.3     1  UNL1        0.2383
      7 C          27.6094   76.7441   -4.6623 C.3     1  UNL1        0.1895
      8 O          28.5628   77.7686   -4.3740 O.3     1  UNL1       -0.3779
      9 C          26.3458   76.9017   -3.7815 C.3     1  UNL1        0.1713
     10 C          25.9895   75.4596   -3.3728 C.3     1  UNL1        0.1764
     11 O          26.9358   74.5877   -4.0115 O.3     1  UNL1       -0.3308
     12 O          26.6375   77.6915   -2.6275 O.3     1  UNL1       -0.3794
     13 H          28.2767   78.6559   -4.6301 H       1  UNL1        0.2106
     14 H          26.9246   78.5924   -2.8288 H       1  UNL1        0.2105
     15 N          28.9534   74.7562   -5.2853 N.ar    1  UNL1       -0.2551
     16 C          30.0502   74.0472   -4.9642 C.ar    1  UNL1        0.3323
     17 N          30.8160   73.4856   -5.9183 N.ar    1  UNL1       -0.2743
     18 C          30.4907   73.6257   -7.2195 C.ar    1  UNL1        0.2626
     19 C          29.3382   74.3686   -7.5718 C.ar    1  UNL1        0.0795
     20 C          28.5864   74.9171   -6.5943 C.ar    1  UNL1        0.0869
     21 O          30.3555   73.9125   -3.7950 O.2     1  UNL1       -0.2464
     22 O          31.1827   73.1176   -8.0841 O.2     1  UNL1       -0.2670
     23 H          31.6042   72.9786   -5.6695 H       1  UNL1        0.1734
     24 O          21.8120   73.4020   -3.9870 O.3     1  UNL1       -0.2703
     25 P          21.2333   73.3025   -5.4864 P.3     1  UNL1        0.2208
     26 O          21.0486   74.7845   -6.0892 O.3     1  UNL1       -0.4371
     27 O          22.1795   72.5414   -6.3312 O.2     1  UNL1       -0.5170
     28 O          19.8095   72.5508   -5.4632 O.3     1  UNL1       -0.2865
     29 C          19.6736   71.1363   -5.6110 C.3     1  UNL1        0.2611
     30 C          18.4737   70.8292   -6.5102 C.3     1  UNL1        0.1582
     31 C          17.1985   71.3516   -5.8414 C.3     1  UNL1        0.1625
     32 C          17.0636   70.7142   -4.4558 C.3     1  UNL1        0.1686
     33 C          18.3182   71.0259   -3.6356 C.3     1  UNL1        0.1760
     34 O          16.0645   71.0042   -6.6394 O.3     1  UNL1       -0.3801
     35 O          16.9213   69.2992   -4.5928 O.3     1  UNL1       -0.3794
     36 O          19.4705   70.5410   -4.3277 O.3     1  UNL1       -0.3263
     37 H          15.2207   71.3052   -6.2751 H       1  UNL1        0.2105
     38 H          16.8314   68.8290   -3.7520 H       1  UNL1        0.2105
     39 C          19.4755   70.9511   -8.7281 C.2     1  UNL1        0.2231
     40 C          19.6594   71.6281  -10.0610 C.3     1  UNL1        0.0946
     41 N          18.6522   71.4884   -7.8064 N.am    1  UNL1       -0.2994
     42 O          20.0689   69.9214   -8.4836 O.2     1  UNL1       -0.2751
     43 H          18.1784   72.3122   -8.0011 H       1  UNL1        0.1496
     44 C          18.2176   70.3424   -2.2706 C.3     1  UNL1        0.1693
     45 O          18.4889   68.9467   -2.4147 O.3     1  UNL1       -0.3794
     46 H          18.4426   68.4490   -1.5870 H       1  UNL1        0.2105
@<TRIPOS>BOND
     1    29    30    1
     2    30    41    1
     3    30    31    1
     4    31    34    1
     5    31    32    1
     6    32    35    1
     7    32    33    1
     8    33    36    1
     9    33    44    1
    10    39    40    1
    11    39    42    2
    12    39    41   am
    13    41    43    1
    14    29    28    1
    15    34    37    1
    16    35    38    1
    17    29    36    1
    18    44    45    1
    19    45    46    1
    20    15     6    1
    21    15    16   ar
    22    16    21    2
    23    16    17   ar
    24    17    23    1
    25    17    18   ar
    26    18    19   ar
    27    19    20   ar
    28    15    20   ar
    29    18    22    2
    30     6     7    1
    31     6    11    1
    32     7     9    1
    33     7     8    1
    34     8    13    1
    35     9    10    1
    36     9    12    1
    37    10     5    1
    38    10    11    1
    39    12    14    1
    40     5     4    1
    41     4     1    1
    42     1     2    1
    43     1    24    1
    44     1     3    2
    45    24    25    1
    46    28    25    1
    47    25    26    1
    48    25    27    2
