@<TRIPOS>MOLECULE
*****
 43 45 0 0 0
SMALL
GASTEIGER

@<TRIPOS>ATOM
      1 P          21.3797   74.1738   -5.3545 P.3     1  UNL1        0.2189
      2 O          19.9745   74.1980   -4.5521 O.co2   1  UNL1       -0.4371
      3 O          22.2340   75.3940   -5.1729 O.2     1  UNL1       -0.5170
      4 O          20.9514   73.8363   -6.8778 O.3     1  UNL1       -0.3112
      5 C          21.5045   72.6897   -7.4974 C.3     1  UNL1        0.1811
      6 O          20.0097   70.8499   -7.8949 O.3     1  UNL1       -0.3308
      7 O          18.6338   72.6368   -9.8711 O.3     1  UNL1       -0.3794
      8 O          16.9992   72.7865   -7.6936 O.3     1  UNL1       -0.3779
      9 C          19.2393   72.9687   -8.6214 C.3     1  UNL1        0.1713
     10 C          18.3656   72.5036   -7.4757 C.3     1  UNL1        0.1895
     11 C          20.4764   72.0974   -8.4527 C.3     1  UNL1        0.1764
     12 C          18.6560   71.0128   -7.4427 C.3     1  UNL1        0.2383
     13 H          17.8409   73.1809  -10.0012 H       1  UNL1        0.2105
     14 H          16.8660   73.7478   -7.7059 H       1  UNL1        0.2106
     15 O          16.2570   69.9945   -6.3545 O.2     1  UNL1       -0.2464
     16 O          18.3078   68.9164   -2.3701 O.2     1  UNL1       -0.2670
     17 N          18.5348   70.4600   -6.1234 N.ar    1  UNL1       -0.2551
     18 N          17.2805   69.4594   -4.3707 N.ar    1  UNL1       -0.2743
     19 C          17.2838   69.9757   -5.6732 C.ar    1  UNL1        0.3323
     20 C          19.6464   70.4000   -5.2916 C.ar    1  UNL1        0.0869
     21 C          19.6277   69.9050   -4.0526 C.ar    1  UNL1        0.0795
     22 C          18.3597   69.3791   -3.5056 C.ar    1  UNL1        0.2626
     23 H          16.4204   69.1181   -4.0345 H       1  UNL1        0.1734
     24 O          22.0595   72.7953   -4.8542 O.3     1  UNL1       -0.2703
     25 P          22.9966   72.4767   -3.5759 P.3     1  UNL1        0.2208
     26 O          24.2435   73.4907   -3.7695 O.co2   1  UNL1       -0.4371
     27 O          23.3881   71.0334   -3.4438 O.2     1  UNL1       -0.5170
     28 O          22.1830   73.0679   -2.3146 O.3     1  UNL1       -0.2858
     29 O          21.5109   71.1839   -1.0464 O.3     1  UNL1       -0.3226
     30 O          20.1437   74.3030    1.2925 O.3     1  UNL1       -0.3794
     31 O          19.8359   74.3842   -1.6115 O.3     1  UNL1       -0.3775
     32 O          22.5330   72.8381    2.0650 O.3     1  UNL1       -0.3792
     33 C          21.0201   73.6494    0.3744 C.3     1  UNL1        0.1718
     34 C          20.2388   73.2365   -0.8732 C.3     1  UNL1        0.1968
     35 C          21.6009   72.4168    1.0710 C.3     1  UNL1        0.1723
     36 C          21.0842   72.3358   -1.7749 C.3     1  UNL1        0.2706
     37 C          22.3216   71.5056    0.0815 C.3     1  UNL1        0.1830
     38 H          19.7625   75.0897    0.8717 H       1  UNL1        0.2105
     39 H          19.2993   74.9604   -1.0453 H       1  UNL1        0.2106
     40 H          22.0869   73.4189    2.7011 H       1  UNL1        0.2106
     41 O          21.9939   69.1855   -0.0242 O.co2   1  UNL1       -0.5466
     42 O          23.2630   69.9794    1.6958 O.co2   1  UNL1       -0.5466
     43 C          22.5929   70.1691    0.6918 C.2     1  UNL1        0.0799
@<TRIPOS>UNITY_ATOM_ATTR
2 1
charge -1
26 1
charge -1
41 1
charge -1
@<TRIPOS>BOND
     1     1     4    1
     2     1    24    1
     3     1     2    1
     4     1     3    2
     5    25    28    1
     6    25    24    1
     7    25    26    1
     8    25    27    2
     9     6    11    1
    10     6    12    1
    11    29    36    1
    12    29    37    1
    13     7     9    1
    14     7    13    1
    15     8    10    1
    16     8    14    1
    17     4     5    1
    18    28    36    1
    19    30    33    1
    20    30    38    1
    21    31    34    1
    22    31    39    1
    23    32    35    1
    24    32    40    1
    25    41    43   ar
    26    15    19    2
    27    42    43   ar
    28    16    22    2
    29    17    12    1
    30    17    19   ar
    31    17    20   ar
    32    18    19   ar
    33    18    22   ar
    34    18    23    1
    35     9    10    1
    36     9    11    1
    37    10    12    1
    38    11     5    1
    39    33    34    1
    40    33    35    1
    41    34    36    1
    42    35    37    1
    43    37    43    1
    44    20    21   ar
    45    21    22   ar
@<TRIPOS>MOLECULE
*****
 43 45 0 0 0
SMALL
GASTEIGER

@<TRIPOS>ATOM
      1 P          22.9300   71.6313   -2.6413 P.3     1  UNL1        0.2189
      2 O          23.7204   72.9533   -3.1375 O.co2   1  UNL1       -0.4371
      3 O          23.4098   70.3431   -3.2430 O.2     1  UNL1       -0.5170
      4 O          21.3733   71.9900   -2.8981 O.3     1  UNL1       -0.3112
      5 C          20.5603   71.0380   -3.5593 C.3     1  UNL1        0.1811
      6 O          18.6854   72.0088   -4.7081 O.3     1  UNL1       -0.3308
      7 O          16.9832   70.8275   -2.5406 O.3     1  UNL1       -0.3794
      8 O          16.6367   69.0686   -4.5955 O.3     1  UNL1       -0.3779
      9 C          18.1595   70.3001   -3.1543 C.3     1  UNL1        0.1713
     10 C          17.8442   69.7997   -4.5480 C.3     1  UNL1        0.1895
     11 C          19.1021   71.4615   -3.4384 C.3     1  UNL1        0.1764
     12 C          17.7755   71.0943   -5.3399 C.3     1  UNL1        0.2383
     13 H          16.3655   70.1038   -2.3495 H       1  UNL1        0.2105
     14 H          16.7316   68.2538   -4.0769 H       1  UNL1        0.2106
     15 O          16.0014   70.4090   -7.4278 O.2     1  UNL1       -0.2464
     16 O          19.3822   70.4508  -10.5602 O.2     1  UNL1       -0.2670
     17 N          18.1654   70.9198   -6.7104 N.ar    1  UNL1       -0.2551
     18 N          17.6871   70.4295   -8.9857 N.ar    1  UNL1       -0.2743
     19 C          17.1959   70.5752   -7.6817 C.ar    1  UNL1        0.3323
     20 C          19.4937   71.0911   -7.0808 C.ar    1  UNL1        0.0869
     21 C          19.9468   70.9488   -8.3279 C.ar    1  UNL1        0.0795
     22 C          18.9987   70.5889   -9.4026 C.ar    1  UNL1        0.2626
     23 H          17.0311   70.1878   -9.6790 H       1  UNL1        0.1734
     24 O          23.0610   71.7128   -1.0322 O.3     1  UNL1       -0.2703
     25 P          22.4780   70.7523    0.1302 P.3     1  UNL1        0.2208
     26 O          23.6299   69.6264    0.2919 O.co2   1  UNL1       -0.4371
     27 O          21.1106   70.2016   -0.1542 O.2     1  UNL1       -0.5170
     28 O          22.5779   71.6335    1.4777 O.3     1  UNL1       -0.2858
     29 O          21.5663   72.4516    3.4567 O.3     1  UNL1       -0.3226
     30 O          21.3954   75.7642    0.9939 O.3     1  UNL1       -0.3794
     31 O          20.7835   73.1067   -0.0539 O.3     1  UNL1       -0.3775
     32 O          23.3620   75.6346    3.1307 O.3     1  UNL1       -0.3792
     33 C          21.9439   74.5521    1.5115 C.3     1  UNL1        0.1718
     34 C          20.9384   73.4153    1.3264 C.3     1  UNL1        0.1968
     35 C          22.2401   74.7639    2.9979 C.3     1  UNL1        0.1723
     36 C          21.3911   72.1580    2.0702 C.3     1  UNL1        0.2706
     37 C          22.5607   73.4452    3.6955 C.3     1  UNL1        0.1830
     38 H          21.1990   75.6534    0.0502 H       1  UNL1        0.2105
     39 H          20.4967   73.9001   -0.5320 H       1  UNL1        0.2106
     40 H          23.1710   76.4777    2.6908 H       1  UNL1        0.2106
     41 O          23.6055   74.2998    5.6137 O.co2   1  UNL1       -0.5466
     42 O          21.6409   73.1811    5.9104 O.co2   1  UNL1       -0.5466
     43 C          22.5229   73.6077    5.1802 C.2     1  UNL1        0.0799
@<TRIPOS>UNITY_ATOM_ATTR
2 1
charge -1
26 1
charge -1
41 1
charge -1
@<TRIPOS>BOND
     1     1     4    1
     2     1    24    1
     3     1     2    1
     4     1     3    2
     5    25    28    1
     6    25    24    1
     7    25    26    1
     8    25    27    2
     9     6    11    1
    10     6    12    1
    11    29    36    1
    12    29    37    1
    13     7     9    1
    14     7    13    1
    15     8    10    1
    16     8    14    1
    17     4     5    1
    18    28    36    1
    19    30    33    1
    20    30    38    1
    21    31    34    1
    22    31    39    1
    23    32    35    1
    24    32    40    1
    25    41    43   ar
    26    15    19    2
    27    42    43   ar
    28    16    22    2
    29    17    12    1
    30    17    19   ar
    31    17    20   ar
    32    18    19   ar
    33    18    22   ar
    34    18    23    1
    35     9    10    1
    36     9    11    1
    37    10    12    1
    38    11     5    1
    39    33    34    1
    40    33    35    1
    41    34    36    1
    42    35    37    1
    43    37    43    1
    44    20    21   ar
    45    21    22   ar
@<TRIPOS>MOLECULE
*****
 43 45 0 0 0
SMALL
GASTEIGER

@<TRIPOS>ATOM
      1 P          23.0082   71.9621   -3.2132 P.3     1  UNL1        0.2189
      2 O          23.7898   72.9801   -4.1990 O.co2   1  UNL1       -0.4371
      3 O          23.5671   70.5703   -3.1674 O.2     1  UNL1       -0.5170
      4 O          21.4624   72.0837   -3.6755 O.3     1  UNL1       -0.3112
      5 C          20.6266   70.9484   -3.5454 C.3     1  UNL1        0.1811
      6 O          18.7709   71.9815   -4.6710 O.3     1  UNL1       -0.3308
      7 O          17.0518   70.8226   -2.5047 O.3     1  UNL1       -0.3794
      8 O          16.6450   69.0961   -4.5759 O.3     1  UNL1       -0.3779
      9 C          18.2095   70.2706   -3.1320 C.3     1  UNL1        0.1713
     10 C          17.8718   69.7940   -4.5288 C.3     1  UNL1        0.1895
     11 C          19.1811   71.4095   -3.4101 C.3     1  UNL1        0.1764
     12 C          17.8327   71.0986   -5.3063 C.3     1  UNL1        0.2383
     13 H          16.4162   70.1136   -2.3172 H       1  UNL1        0.2105
     14 H          16.7213   68.2734   -4.0667 H       1  UNL1        0.2106
     15 O          16.0326   70.4503   -7.3838 O.2     1  UNL1       -0.2464
     16 O          19.3874   70.4707  -10.5443 O.2     1  UNL1       -0.2670
     17 N          18.2089   70.9285   -6.6813 N.ar    1  UNL1       -0.2551
     18 N          17.7054   70.4601   -8.9558 N.ar    1  UNL1       -0.2743
     19 C          17.2270   70.6031   -7.6467 C.ar    1  UNL1        0.3323
     20 C          19.5362   71.0855   -7.0617 C.ar    1  UNL1        0.0869
     21 C          19.9770   70.9462   -8.3135 C.ar    1  UNL1        0.0795
     22 C          19.0154   70.6057   -9.3826 C.ar    1  UNL1        0.2626
     23 H          17.0406   70.2316   -9.6451 H       1  UNL1        0.1734
     24 O          23.0266   72.7421   -1.7975 O.3     1  UNL1       -0.2703
     25 P          22.3163   72.3976   -0.3866 P.3     1  UNL1        0.2208
     26 O          22.7770   70.8719   -0.1034 O.co2   1  UNL1       -0.4371
     27 O          20.8296   72.6064   -0.3785 O.2     1  UNL1       -0.5170
     28 O          23.1215   73.2747    0.7018 O.3     1  UNL1       -0.2858
     29 O          22.6578   74.2836    2.7938 O.3     1  UNL1       -0.3226
     30 O          24.7709   77.2680    0.8713 O.3     1  UNL1       -0.3794
     31 O          22.7508   75.7225   -0.5659 O.3     1  UNL1       -0.3775
     32 O          26.0488   75.6769    2.9416 O.3     1  UNL1       -0.3792
     33 C          24.4123   75.9236    1.1906 C.3     1  UNL1        0.1718
     34 C          22.9417   75.6900    0.8438 C.3     1  UNL1        0.1968
     35 C          24.6456   75.7150    2.6886 C.3     1  UNL1        0.1723
     36 C          22.4606   74.3412    1.3806 C.3     1  UNL1        0.2706
     37 C          24.0271   74.4063    3.1717 C.3     1  UNL1        0.1830
     38 H          24.6308   77.4239   -0.0760 H       1  UNL1        0.2105
     39 H          23.0543   76.5755   -0.9132 H       1  UNL1        0.2106
     40 H          26.4546   76.5042    2.6385 H       1  UNL1        0.2106
     41 O          22.8082   73.8023    5.0825 O.co2   1  UNL1       -0.5466
     42 O          24.8411   74.7811    5.4119 O.co2   1  UNL1       -0.5466
     43 C          23.9681   74.3667    4.6641 C.2     1  UNL1        0.0799
@<TRIPOS>UNITY_ATOM_ATTR
2 1
charge -1
26 1
charge -1
41 1
charge -1
@<TRIPOS>BOND
     1     1     4    1
     2     1    24    1
     3     1     2    1
     4     1     3    2
     5    25    28    1
     6    25    24    1
     7    25    26    1
     8    25    27    2
     9     6    11    1
    10     6    12    1
    11    29    36    1
    12    29    37    1
    13     7     9    1
    14     7    13    1
    15     8    10    1
    16     8    14    1
    17     4     5    1
    18    28    36    1
    19    30    33    1
    20    30    38    1
    21    31    34    1
    22    31    39    1
    23    32    35    1
    24    32    40    1
    25    41    43   ar
    26    15    19    2
    27    42    43   ar
    28    16    22    2
    29    17    12    1
    30    17    19   ar
    31    17    20   ar
    32    18    19   ar
    33    18    22   ar
    34    18    23    1
    35     9    10    1
    36     9    11    1
    37    10    12    1
    38    11     5    1
    39    33    34    1
    40    33    35    1
    41    34    36    1
    42    35    37    1
    43    37    43    1
    44    20    21   ar
    45    21    22   ar
@<TRIPOS>MOLECULE
*****
 43 45 0 0 0
SMALL
GASTEIGER

@<TRIPOS>ATOM
      1 P          23.0218   71.9237   -3.3461 P.3     1  UNL1        0.2189
      2 O          23.7701   72.9980   -4.2974 O.co2   1  UNL1       -0.4371
      3 O          23.6952   70.5862   -3.2491 O.2     1  UNL1       -0.5170
      4 O          21.5018   71.9065   -3.9003 O.3     1  UNL1       -0.3112
      5 C          20.6530   70.8415   -3.5132 C.3     1  UNL1        0.1811
      6 O          18.8424   71.9561   -4.6344 O.3     1  UNL1       -0.3308
      7 O          17.0789   70.8757   -2.4631 O.3     1  UNL1       -0.3794
      8 O          16.5900   69.1685   -4.5326 O.3     1  UNL1       -0.3779
      9 C          18.2092   70.2724   -3.0932 C.3     1  UNL1        0.1713
     10 C          17.8469   69.8110   -4.4889 C.3     1  UNL1        0.1895
     11 C          19.2299   71.3667   -3.3743 C.3     1  UNL1        0.1764
     12 C          17.8641   71.1158   -5.2669 C.3     1  UNL1        0.2383
     13 H          16.4128   70.1959   -2.2737 H       1  UNL1        0.2105
     14 H          16.6308   68.3434   -4.0232 H       1  UNL1        0.2106
     15 O          16.0233   70.6265   -7.3522 O.2     1  UNL1       -0.2464
     16 O          19.3759   70.4137  -10.5080 O.2     1  UNL1       -0.2670
     17 N          18.2287   70.9287   -6.6427 N.ar    1  UNL1       -0.2551
     18 N          17.6949   70.5200   -8.9218 N.ar    1  UNL1       -0.2743
     19 C          17.2264   70.6885   -7.6121 C.ar    1  UNL1        0.3323
     20 C          19.5648   70.9856   -7.0200 C.ar    1  UNL1        0.0869
     21 C          19.9961   70.8231   -8.2724 C.ar    1  UNL1        0.0795
     22 C          19.0131   70.5672   -9.3456 C.ar    1  UNL1        0.2626
     23 H          17.0158   70.3495   -9.6139 H       1  UNL1        0.1734
     24 O          22.8879   72.7135   -1.9422 O.3     1  UNL1       -0.2703
     25 P          22.6056   74.2734   -1.6246 P.3     1  UNL1        0.2208
     26 O          21.3712   74.6336   -2.6079 O.co2   1  UNL1       -0.4371
     27 O          23.8050   75.1617   -1.7869 O.2     1  UNL1       -0.5170
     28 O          21.9628   74.2800   -0.1450 O.3     1  UNL1       -0.2858
     29 O          21.0698   72.0870   -0.0997 O.3     1  UNL1       -0.3226
     30 O          20.8625   73.1616    3.8841 O.3     1  UNL1       -0.3794
     31 O          20.1336   75.0699    1.7957 O.3     1  UNL1       -0.3775
     32 O          22.9271   71.3292    2.9725 O.3     1  UNL1       -0.3792
     33 C          21.4049   73.1515    2.5636 C.3     1  UNL1        0.1718
     34 C          20.3633   73.6825    1.5784 C.3     1  UNL1        0.1968
     35 C          21.7785   71.7085    2.2168 C.3     1  UNL1        0.1723
     36 C          20.8199   73.4735    0.1339 C.3     1  UNL1        0.2706
     37 C          22.0994   71.5575    0.7326 C.3     1  UNL1        0.1830
     38 H          20.6177   74.0686    4.1263 H       1  UNL1        0.2105
     39 H          19.8439   75.2099    2.7104 H       1  UNL1        0.2106
     40 H          22.7362   71.4210    3.9191 H       1  UNL1        0.2106
     41 O          21.0223   69.7772   -0.3499 O.co2   1  UNL1       -0.5466
     42 O          23.0470   69.3423    0.6044 O.co2   1  UNL1       -0.5466
     43 C          22.1381   70.1158    0.3423 C.2     1  UNL1        0.0799
@<TRIPOS>UNITY_ATOM_ATTR
2 1
charge -1
26 1
charge -1
41 1
charge -1
@<TRIPOS>BOND
     1     1     4    1
     2     1    24    1
     3     1     2    1
     4     1     3    2
     5    25    28    1
     6    25    24    1
     7    25    26    1
     8    25    27    2
     9     6    11    1
    10     6    12    1
    11    29    36    1
    12    29    37    1
    13     7     9    1
    14     7    13    1
    15     8    10    1
    16     8    14    1
    17     4     5    1
    18    28    36    1
    19    30    33    1
    20    30    38    1
    21    31    34    1
    22    31    39    1
    23    32    35    1
    24    32    40    1
    25    41    43   ar
    26    15    19    2
    27    42    43   ar
    28    16    22    2
    29    17    12    1
    30    17    19   ar
    31    17    20   ar
    32    18    19   ar
    33    18    22   ar
    34    18    23    1
    35     9    10    1
    36     9    11    1
    37    10    12    1
    38    11     5    1
    39    33    34    1
    40    33    35    1
    41    34    36    1
    42    35    37    1
    43    37    43    1
    44    20    21   ar
    45    21    22   ar
@<TRIPOS>MOLECULE
*****
 43 45 0 0 0
SMALL
GASTEIGER

@<TRIPOS>ATOM
      1 P          22.7813   71.5945   -2.1754 P.3     1  UNL1        0.2189
      2 O          23.1824   73.1557   -2.3196 O.co2   1  UNL1       -0.4371
      3 O          23.4812   70.6700   -3.1278 O.2     1  UNL1       -0.5170
      4 O          21.1655   71.5991   -2.2602 O.3     1  UNL1       -0.3112
      5 C          20.5545   71.4320   -3.5264 C.3     1  UNL1        0.1811
      6 O          18.6219   72.2461   -4.7013 O.3     1  UNL1       -0.3308
      7 O          17.0000   71.0630   -2.4738 O.3     1  UNL1       -0.3794
      8 O          16.7440   69.2023   -4.4507 O.3     1  UNL1       -0.3779
      9 C          18.2014   70.5775   -3.0734 C.3     1  UNL1        0.1713
     10 C          17.9082   70.0017   -4.4427 C.3     1  UNL1        0.1895
     11 C          19.0752   71.7773   -3.4128 C.3     1  UNL1        0.1764
     12 C          17.7623   71.2558   -5.2875 C.3     1  UNL1        0.2383
     13 H          16.4254   70.3143   -2.2482 H       1  UNL1        0.2105
     14 H          16.8874   68.4167   -3.8992 H       1  UNL1        0.2106
     15 O          16.0225   70.3723   -7.3294 O.2     1  UNL1       -0.2464
     16 O          19.3774   70.4848  -10.4880 O.2     1  UNL1       -0.2670
     17 N          18.1548   71.0458   -6.6524 N.ar    1  UNL1       -0.2551
     18 N          17.6953   70.4282   -8.9004 N.ar    1  UNL1       -0.2743
     19 C          17.2031   70.6003   -7.6000 C.ar    1  UNL1        0.3323
     20 C          19.4680   71.2820   -7.0406 C.ar    1  UNL1        0.0869
     21 C          19.9223   71.1136   -8.2839 C.ar    1  UNL1        0.0795
     22 C          18.9924   70.6495   -9.3343 C.ar    1  UNL1        0.2626
     23 H          17.0518   70.1167   -9.5772 H       1  UNL1        0.1734
     24 O          23.0623   71.2905   -0.6129 O.3     1  UNL1       -0.2703
     25 P          22.1877   70.4910    0.4869 P.3     1  UNL1        0.2208
     26 O          23.3097   69.8979    1.4917 O.co2   1  UNL1       -0.4371
     27 O          21.2672   69.4561   -0.0924 O.2     1  UNL1       -0.5170
     28 O          21.4475   71.6441    1.3382 O.3     1  UNL1       -0.2858
     29 O          22.0012   73.9204    0.9899 O.3     1  UNL1       -0.3226
     30 O          20.1107   74.0671    4.6604 O.3     1  UNL1       -0.3794
     31 O          21.9965   71.9209    4.0508 O.3     1  UNL1       -0.3775
     32 O          18.7282   74.9749    2.2697 O.3     1  UNL1       -0.3792
     33 C          20.3671   73.5742    3.3454 C.3     1  UNL1        0.1718
     34 C          21.8131   73.0860    3.2548 C.3     1  UNL1        0.1968
     35 C          20.1285   74.7178    2.3569 C.3     1  UNL1        0.1723
     36 C          22.1928   72.7658    1.8084 C.3     1  UNL1        0.2706
     37 C          20.6478   74.3685    0.9652 C.3     1  UNL1        0.1830
     38 H          20.2560   73.3576    5.3060 H       1  UNL1        0.2105
     39 H          21.7572   72.1167    4.9699 H       1  UNL1        0.2106
     40 H          18.3851   75.1983    3.1491 H       1  UNL1        0.2106
     41 O          19.4744   76.1011   -0.0945 O.co2   1  UNL1       -0.5466
     42 O          21.7383   76.0617   -0.3635 O.co2   1  UNL1       -0.5466
     43 C          20.7136   75.5866    0.1024 C.2     1  UNL1        0.0799
@<TRIPOS>UNITY_ATOM_ATTR
2 1
charge -1
26 1
charge -1
41 1
charge -1
@<TRIPOS>BOND
     1     1     4    1
     2     1    24    1
     3     1     2    1
     4     1     3    2
     5    25    28    1
     6    25    24    1
     7    25    26    1
     8    25    27    2
     9     6    11    1
    10     6    12    1
    11    29    36    1
    12    29    37    1
    13     7     9    1
    14     7    13    1
    15     8    10    1
    16     8    14    1
    17     4     5    1
    18    28    36    1
    19    30    33    1
    20    30    38    1
    21    31    34    1
    22    31    39    1
    23    32    35    1
    24    32    40    1
    25    41    43   ar
    26    15    19    2
    27    42    43   ar
    28    16    22    2
    29    17    12    1
    30    17    19   ar
    31    17    20   ar
    32    18    19   ar
    33    18    22   ar
    34    18    23    1
    35     9    10    1
    36     9    11    1
    37    10    12    1
    38    11     5    1
    39    33    34    1
    40    33    35    1
    41    34    36    1
    42    35    37    1
    43    37    43    1
    44    20    21   ar
    45    21    22   ar
@<TRIPOS>MOLECULE
*****
 43 45 0 0 0
SMALL
GASTEIGER

@<TRIPOS>ATOM
      1 P          22.5969   73.1776   -4.3296 P.3     1  UNL1        0.2189
      2 O          21.7241   74.5118   -4.0520 O.co2   1  UNL1       -0.4371
      3 O          22.6414   72.7366   -5.7633 O.2     1  UNL1       -0.5170
      4 O          22.0020   72.0988   -3.2808 O.3     1  UNL1       -0.3112
      5 C          21.1425   71.0848   -3.7682 C.3     1  UNL1        0.1811
      6 O          19.1426   72.0207   -4.7181 O.3     1  UNL1       -0.3308
      7 O          17.6949   70.8230   -2.3812 O.3     1  UNL1       -0.3794
      8 O          17.1645   69.0493   -4.3833 O.3     1  UNL1       -0.3779
      9 C          18.8092   70.3113   -3.1127 C.3     1  UNL1        0.1713
     10 C          18.3584   69.7994   -4.4643 C.3     1  UNL1        0.1895
     11 C          19.6982   71.4860   -3.4972 C.3     1  UNL1        0.1764
     12 C          18.1866   71.0890   -5.2487 C.3     1  UNL1        0.2383
     13 H          17.1123   70.0906   -2.1245 H       1  UNL1        0.2105
     14 H          17.3260   68.2384   -3.8749 H       1  UNL1        0.2106
     15 O          16.2195   70.3487   -7.1352 O.2     1  UNL1       -0.2464
     16 O          19.2503   70.4469  -10.6063 O.2     1  UNL1       -0.2670
     17 N          18.4343   70.9141   -6.6519 N.ar    1  UNL1       -0.2551
     18 N          17.7311   70.3974   -8.8620 N.ar    1  UNL1       -0.2743
     19 C          17.3764   70.5407   -7.5142 C.ar    1  UNL1        0.3323
     20 C          19.7118   71.1134   -7.1608 C.ar    1  UNL1        0.0869
     21 C          20.0346   70.9731   -8.4481 C.ar    1  UNL1        0.0795
     22 C          18.9875   70.5840   -9.4153 C.ar    1  UNL1        0.2626
     23 H          17.0117   70.1359   -9.4813 H       1  UNL1        0.1734
     24 O          24.0364   73.5469   -3.6938 O.3     1  UNL1       -0.2703
     25 P          24.7719   74.9718   -3.4880 P.3     1  UNL1        0.2208
     26 O          25.2352   74.9284   -1.9376 O.co2   1  UNL1       -0.4371
     27 O          23.9261   76.1590   -3.8477 O.2     1  UNL1       -0.5170
     28 O          26.1444   74.8489   -4.3268 O.3     1  UNL1       -0.2858
     29 O          27.9917   75.9233   -3.3058 O.3     1  UNL1       -0.3226
     30 O          29.5340   74.9379   -7.0097 O.3     1  UNL1       -0.3794
     31 O          26.8214   75.9954   -6.7687 O.3     1  UNL1       -0.3775
     32 O          30.2850   73.3996   -4.6601 O.3     1  UNL1       -0.3792
     33 C          28.7089   74.7745   -5.8562 C.3     1  UNL1        0.1718
     34 C          27.7795   75.9804   -5.7168 C.3     1  UNL1        0.1968
     35 C          29.6223   74.6624   -4.6335 C.3     1  UNL1        0.1723
     36 C          27.0458   75.9534   -4.3753 C.3     1  UNL1        0.2706
     37 C          28.8295   74.7698   -3.3341 C.3     1  UNL1        0.1830
     38 H          28.9752   75.0114   -7.7994 H       1  UNL1        0.2105
     39 H          27.2801   76.0122   -7.6230 H       1  UNL1        0.2106
     40 H          30.7932   73.3184   -5.4823 H       1  UNL1        0.2106
     41 O          30.4766   76.1166   -2.3468 O.co2   1  UNL1       -0.5466
     42 O          29.8216   74.2614   -1.1943 O.co2   1  UNL1       -0.5466
     43 C          29.7426   74.9898   -2.1721 C.2     1  UNL1        0.0799
@<TRIPOS>UNITY_ATOM_ATTR
2 1
charge -1
26 1
charge -1
41 1
charge -1
@<TRIPOS>BOND
     1     1     4    1
     2     1    24    1
     3     1     2    1
     4     1     3    2
     5    25    28    1
     6    25    24    1
     7    25    26    1
     8    25    27    2
     9     6    11    1
    10     6    12    1
    11    29    36    1
    12    29    37    1
    13     7     9    1
    14     7    13    1
    15     8    10    1
    16     8    14    1
    17     4     5    1
    18    28    36    1
    19    30    33    1
    20    30    38    1
    21    31    34    1
    22    31    39    1
    23    32    35    1
    24    32    40    1
    25    41    43   ar
    26    15    19    2
    27    42    43   ar
    28    16    22    2
    29    17    12    1
    30    17    19   ar
    31    17    20   ar
    32    18    19   ar
    33    18    22   ar
    34    18    23    1
    35     9    10    1
    36     9    11    1
    37    10    12    1
    38    11     5    1
    39    33    34    1
    40    33    35    1
    41    34    36    1
    42    35    37    1
    43    37    43    1
    44    20    21   ar
    45    21    22   ar
@<TRIPOS>MOLECULE
*****
 43 45 0 0 0
SMALL
GASTEIGER

@<TRIPOS>ATOM
      1 P          22.6332   71.0973   -1.9527 P.3     1  UNL1        0.2189
      2 O          23.5119   70.6178   -3.2243 O.co2   1  UNL1       -0.4371
      3 O          23.0404   70.4976   -0.6388 O.2     1  UNL1       -0.5170
      4 O          21.1059   70.8192   -2.4088 O.3     1  UNL1       -0.3112
      5 C          20.6433   71.4017   -3.6134 C.3     1  UNL1        0.1811
      6 O          18.6785   72.1993   -4.7453 O.3     1  UNL1       -0.3308
      7 O          17.1166   71.0092   -2.4791 O.3     1  UNL1       -0.3794
      8 O          16.8289   69.1425   -4.4461 O.3     1  UNL1       -0.3779
      9 C          18.3074   70.5311   -3.1051 C.3     1  UNL1        0.1713
     10 C          17.9872   69.9504   -4.4662 C.3     1  UNL1        0.1895
     11 C          19.1645   71.7365   -3.4667 C.3     1  UNL1        0.1764
     12 C          17.8129   71.2016   -5.3099 C.3     1  UNL1        0.2383
     13 H          16.5527   70.2568   -2.2389 H       1  UNL1        0.2105
     14 H          16.9907   68.3591   -3.8964 H       1  UNL1        0.2106
     15 O          16.0277   70.3239   -7.3147 O.2     1  UNL1       -0.2464
     16 O          19.3146   70.4304  -10.5442 O.2     1  UNL1       -0.2670
     17 N          18.1756   70.9917   -6.6829 N.ar    1  UNL1       -0.2551
     18 N          17.6667   70.3768   -8.9210 N.ar    1  UNL1       -0.2743
     19 C          17.2028   70.5492   -7.6103 C.ar    1  UNL1        0.3323
     20 C          19.4808   71.2249   -7.0990 C.ar    1  UNL1        0.0869
     21 C          19.9080   71.0562   -8.3519 C.ar    1  UNL1        0.0795
     22 C          18.9547   70.5952   -9.3825 C.ar    1  UNL1        0.2626
     23 H          17.0080   70.0674   -9.5842 H       1  UNL1        0.1734
     24 O          22.7451   72.7084   -2.0211 O.3     1  UNL1       -0.2703
     25 P          23.4602   73.6779   -3.0993 P.3     1  UNL1        0.2208
     26 O          22.3538   74.8328   -3.3491 O.co2   1  UNL1       -0.4371
     27 O          23.9178   72.9796   -4.3470 O.2     1  UNL1       -0.5170
     28 O          24.6356   74.4119   -2.2734 O.3     1  UNL1       -0.2858
     29 O          25.0315   76.6641   -1.6570 O.3     1  UNL1       -0.3226
     30 O          28.8508   75.3439   -2.5160 O.3     1  UNL1       -0.3794
     31 O          26.6053   74.5961   -4.2286 O.3     1  UNL1       -0.3775
     32 O          28.0109   75.6827    0.2463 O.3     1  UNL1       -0.3792
     33 C          27.5019   75.2254   -2.0638 C.3     1  UNL1        0.1718
     34 C          26.5470   75.5813   -3.2036 C.3     1  UNL1        0.1968
     35 C          27.3107   76.1875   -0.8892 C.3     1  UNL1        0.1723
     36 C          25.1078   75.6893   -2.6978 C.3     1  UNL1        0.2706
     37 C          25.8362   76.3373   -0.5261 C.3     1  UNL1        0.1830
     38 H          28.9958   74.7414   -3.2626 H       1  UNL1        0.2105
     39 H          27.5158   74.5220   -4.5539 H       1  UNL1        0.2106
     40 H          28.9507   75.5826    0.0285 H       1  UNL1        0.2106
     41 O          25.1408   78.5666   -0.3073 O.co2   1  UNL1       -0.5466
     42 O          25.8634   77.5123    1.5810 O.co2   1  UNL1       -0.5466
     43 C          25.6294   77.5057    0.3817 C.2     1  UNL1        0.0799
@<TRIPOS>UNITY_ATOM_ATTR
2 1
charge -1
26 1
charge -1
41 1
charge -1
@<TRIPOS>BOND
     1     1     4    1
     2     1    24    1
     3     1     2    1
     4     1     3    2
     5    25    28    1
     6    25    24    1
     7    25    26    1
     8    25    27    2
     9     6    11    1
    10     6    12    1
    11    29    36    1
    12    29    37    1
    13     7     9    1
    14     7    13    1
    15     8    10    1
    16     8    14    1
    17     4     5    1
    18    28    36    1
    19    30    33    1
    20    30    38    1
    21    31    34    1
    22    31    39    1
    23    32    35    1
    24    32    40    1
    25    41    43   ar
    26    15    19    2
    27    42    43   ar
    28    16    22    2
    29    17    12    1
    30    17    19   ar
    31    17    20   ar
    32    18    19   ar
    33    18    22   ar
    34    18    23    1
    35     9    10    1
    36     9    11    1
    37    10    12    1
    38    11     5    1
    39    33    34    1
    40    33    35    1
    41    34    36    1
    42    35    37    1
    43    37    43    1
    44    20    21   ar
    45    21    22   ar
@<TRIPOS>MOLECULE
*****
 43 45 0 0 0
SMALL
GASTEIGER

@<TRIPOS>ATOM
      1 P          21.5390   70.4260   -0.9967 P.3     1  UNL1        0.2189
      2 O          22.9140   71.1543   -1.4416 O.co2   1  UNL1       -0.4371
      3 O          21.6401   69.5835    0.2409 O.2     1  UNL1       -0.5170
      4 O          21.0576   69.6542   -2.3347 O.3     1  UNL1       -0.3112
      5 C          20.7422   70.4220   -3.4817 C.3     1  UNL1        0.1811
      6 O          19.0088   71.7187   -4.5265 O.3     1  UNL1       -0.3308
      7 O          17.1803   70.6350   -2.4114 O.3     1  UNL1       -0.3794
      8 O          16.5741   69.0873   -4.5732 O.3     1  UNL1       -0.3779
      9 C          18.2664   69.9948   -3.0816 C.3     1  UNL1        0.1713
     10 C          17.8715   69.6404   -4.4996 C.3     1  UNL1        0.1895
     11 C          19.3579   71.0326   -3.3048 C.3     1  UNL1        0.1764
     12 C          17.9751   70.9840   -5.2010 C.3     1  UNL1        0.2383
     13 H          16.4703   69.9916   -2.2578 H       1  UNL1        0.2105
     14 H          16.5601   68.2332   -4.1125 H       1  UNL1        0.2106
     15 O          16.1249   70.4532   -7.2677 O.2     1  UNL1       -0.2464
     16 O          19.4260   70.5018  -10.4839 O.2     1  UNL1       -0.2670
     17 N          18.3239   70.8530   -6.5873 N.ar    1  UNL1       -0.2551
     18 N          17.7709   70.4769   -8.8675 N.ar    1  UNL1       -0.2743
     19 C          17.3181   70.5857   -7.5460 C.ar    1  UNL1        0.3323
     20 C          19.6481   70.9905   -6.9853 C.ar    1  UNL1        0.0869
     21 C          20.0644   70.8843   -8.2487 C.ar    1  UNL1        0.0795
     22 C          19.0770   70.6051   -9.3119 C.ar    1  UNL1        0.2626
     23 H          17.0892   70.2890   -9.5526 H       1  UNL1        0.1734
     24 O          20.4950   71.6555   -0.8908 O.3     1  UNL1       -0.2703
     25 P          20.7249   73.2156   -0.5344 P.3     1  UNL1        0.2208
     26 O          19.2398   73.8469   -0.6618 O.co2   1  UNL1       -0.4371
     27 O          21.7605   73.8949   -1.3830 O.2     1  UNL1       -0.5170
     28 O          21.0400   73.2319    1.0476 O.3     1  UNL1       -0.2858
     29 O          20.3380   74.6619    2.8003 O.3     1  UNL1       -0.3226
     30 O          24.2186   73.7974    3.9237 O.3     1  UNL1       -0.3794
     31 O          23.5775   74.3677    1.1312 O.3     1  UNL1       -0.3775
     32 O          21.9875   72.5251    5.2854 O.3     1  UNL1       -0.3792
     33 C          22.9481   73.5432    3.3244 C.3     1  UNL1        0.1718
     34 C          22.6873   74.5705    2.2225 C.3     1  UNL1        0.1968
     35 C          21.8805   73.6504    4.4156 C.3     1  UNL1        0.1723
     36 C          21.2477   74.4752    1.7153 C.3     1  UNL1        0.2706
     37 C          20.4757   73.6749    3.8201 C.3     1  UNL1        0.1830
     38 H          24.9129   73.7347    3.2490 H       1  UNL1        0.2105
     39 H          24.4929   74.4265    1.4459 H       1  UNL1        0.2106
     40 H          22.8771   72.4978    5.6709 H       1  UNL1        0.2106
     41 O          18.7505   75.1591    4.3876 O.co2   1  UNL1       -0.5466
     42 O          19.3198   73.5851    5.9360 O.co2   1  UNL1       -0.5466
     43 C          19.4741   74.1058    4.8415 C.2     1  UNL1        0.0799
@<TRIPOS>UNITY_ATOM_ATTR
2 1
charge -1
26 1
charge -1
41 1
charge -1
@<TRIPOS>BOND
     1     1     4    1
     2     1    24    1
     3     1     2    1
     4     1     3    2
     5    25    28    1
     6    25    24    1
     7    25    26    1
     8    25    27    2
     9     6    11    1
    10     6    12    1
    11    29    36    1
    12    29    37    1
    13     7     9    1
    14     7    13    1
    15     8    10    1
    16     8    14    1
    17     4     5    1
    18    28    36    1
    19    30    33    1
    20    30    38    1
    21    31    34    1
    22    31    39    1
    23    32    35    1
    24    32    40    1
    25    41    43   ar
    26    15    19    2
    27    42    43   ar
    28    16    22    2
    29    17    12    1
    30    17    19   ar
    31    17    20   ar
    32    18    19   ar
    33    18    22   ar
    34    18    23    1
    35     9    10    1
    36     9    11    1
    37    10    12    1
    38    11     5    1
    39    33    34    1
    40    33    35    1
    41    34    36    1
    42    35    37    1
    43    37    43    1
    44    20    21   ar
    45    21    22   ar
@<TRIPOS>MOLECULE
*****
 43 45 0 0 0
SMALL
GASTEIGER

@<TRIPOS>ATOM
      1 P          21.5577   72.9927   -6.0942 P.3     1  UNL1        0.2189
      2 O          21.2820   74.4941   -5.5569 O.co2   1  UNL1       -0.4371
      3 O          22.7462   72.8520   -6.9995 O.2     1  UNL1       -0.5170
      4 O          20.1378   72.5382   -6.7229 O.3     1  UNL1       -0.3112
      5 C          19.7132   71.2005   -6.5367 C.3     1  UNL1        0.1811
      6 O          17.4716   70.9820   -7.3765 O.3     1  UNL1       -0.3308
      7 O          18.7053   70.8579  -10.1067 O.3     1  UNL1       -0.3794
      8 O          17.8214   73.4339   -9.9688 O.3     1  UNL1       -0.3779
      9 C          19.1024   71.6247   -8.9697 C.3     1  UNL1        0.1713
     10 C          18.1495   72.7824   -8.7595 C.3     1  UNL1        0.1895
     11 C          18.8583   70.7813   -7.7258 C.3     1  UNL1        0.1764
     12 C          16.9538   72.0950   -8.1225 C.3     1  UNL1        0.2383
     13 H          18.8519   71.3762  -10.9139 H       1  UNL1        0.2105
     14 H          18.6153   73.8558  -10.3344 H       1  UNL1        0.2106
     15 O          14.8521   73.8081   -8.9129 O.2     1  UNL1       -0.2464
     16 O          14.2669   75.3720   -4.6169 O.2     1  UNL1       -0.2670
     17 N          16.2348   72.9606   -7.2311 N.ar    1  UNL1       -0.2551
     18 N          14.5634   74.5861   -6.7727 N.ar    1  UNL1       -0.2743
     19 C          15.1959   73.7817   -7.7297 C.ar    1  UNL1        0.3323
     20 C          16.5593   72.9893   -5.8802 C.ar    1  UNL1        0.0869
     21 C          15.9473   73.7612   -4.9801 C.ar    1  UNL1        0.0795
     22 C          14.8512   74.6497   -5.4189 C.ar    1  UNL1        0.2626
     23 H          13.8381   75.1680   -7.0964 H       1  UNL1        0.1734
     24 O          21.6442   72.1294   -4.7303 O.3     1  UNL1       -0.2703
     25 P          22.7846   72.0638   -3.5862 P.3     1  UNL1        0.2208
     26 O          23.9402   73.0417   -4.1594 O.co2   1  UNL1       -0.4371
     27 O          23.2539   70.6747   -3.2635 O.2     1  UNL1       -0.5170
     28 O          22.1560   72.8656   -2.3354 O.3     1  UNL1       -0.2858
     29 O          21.3792   71.2167   -0.8232 O.3     1  UNL1       -0.3226
     30 O          20.5578   74.7017    1.2380 O.3     1  UNL1       -0.3794
     31 O          20.0336   74.5190   -1.6301 O.3     1  UNL1       -0.3775
     32 O          22.8215   73.0490    2.0096 O.3     1  UNL1       -0.3792
     33 C          21.2807   73.8567    0.3428 C.3     1  UNL1        0.1718
     34 C          20.3624   73.4137   -0.7965 C.3     1  UNL1        0.1968
     35 C          21.7729   72.6419    1.1327 C.3     1  UNL1        0.1723
     36 C          21.0281   72.3300   -1.6459 C.3     1  UNL1        0.2706
     37 C          22.3070   71.5538    0.2057 C.3     1  UNL1        0.1830
     38 H          20.2351   75.4807    0.7581 H       1  UNL1        0.2105
     39 H          19.6110   75.2105   -1.0976 H       1  UNL1        0.2106
     40 H          22.4946   73.7416    2.6049 H       1  UNL1        0.2106
     41 O          21.6116   69.3297    0.4724 O.co2   1  UNL1       -0.5466
     42 O          23.2768   70.0703    1.8428 O.co2   1  UNL1       -0.5466
     43 C          22.4743   70.2646    0.9421 C.2     1  UNL1        0.0799
@<TRIPOS>UNITY_ATOM_ATTR
2 1
charge -1
26 1
charge -1
41 1
charge -1
@<TRIPOS>BOND
     1     1     4    1
     2     1    24    1
     3     1     2    1
     4     1     3    2
     5    25    28    1
     6    25    24    1
     7    25    26    1
     8    25    27    2
     9     6    11    1
    10     6    12    1
    11    29    36    1
    12    29    37    1
    13     7     9    1
    14     7    13    1
    15     8    10    1
    16     8    14    1
    17     4     5    1
    18    28    36    1
    19    30    33    1
    20    30    38    1
    21    31    34    1
    22    31    39    1
    23    32    35    1
    24    32    40    1
    25    41    43   ar
    26    15    19    2
    27    42    43   ar
    28    16    22    2
    29    17    12    1
    30    17    19   ar
    31    17    20   ar
    32    18    19   ar
    33    18    22   ar
    34    18    23    1
    35     9    10    1
    36     9    11    1
    37    10    12    1
    38    11     5    1
    39    33    34    1
    40    33    35    1
    41    34    36    1
    42    35    37    1
    43    37    43    1
    44    20    21   ar
    45    21    22   ar
@<TRIPOS>MOLECULE
*****
 43 45 0 0 0
SMALL
GASTEIGER

@<TRIPOS>ATOM
      1 P          22.6506   72.9379   -2.7048 P.3     1  UNL1        0.2189
      2 O          23.1454   71.9712   -3.9046 O.co2   1  UNL1       -0.4371
      3 O          23.4698   72.8604   -1.4499 O.2     1  UNL1       -0.5170
      4 O          21.0805   72.5824   -2.5419 O.3     1  UNL1       -0.3112
      5 C          20.4438   71.8462   -3.5701 C.3     1  UNL1        0.1811
      6 O          18.4428   72.4084   -4.7774 O.3     1  UNL1       -0.3308
      7 O          16.9406   71.1906   -2.4857 O.3     1  UNL1       -0.3794
      8 O          16.8673   69.2146   -4.3634 O.3     1  UNL1       -0.3779
      9 C          18.1838   70.7930   -3.0644 C.3     1  UNL1        0.1713
     10 C          17.9489   70.1219   -4.4011 C.3     1  UNL1        0.1895
     11 C          18.9380   72.0525   -3.4684 C.3     1  UNL1        0.1764
     12 C          17.6833   71.3110   -5.3086 C.3     1  UNL1        0.2383
     13 H          16.4407   70.4026   -2.2196 H       1  UNL1        0.2105
     14 H          17.0854   68.4759   -3.7728 H       1  UNL1        0.2106
     15 O          15.9867   70.3283   -7.3414 O.2     1  UNL1       -0.2464
     16 O          19.3730   70.4240  -10.4667 O.2     1  UNL1       -0.2670
     17 N          18.0956   71.0698   -6.6624 N.ar    1  UNL1       -0.2551
     18 N          17.6751   70.3760   -8.8958 N.ar    1  UNL1       -0.2743
     19 C          17.1648   70.5751   -7.6062 C.ar    1  UNL1        0.3323
     20 C          19.4074   71.3243   -7.0437 C.ar    1  UNL1        0.0869
     21 C          19.8791   71.1297   -8.2768 C.ar    1  UNL1        0.0795
     22 C          18.9716   70.6138   -9.3225 C.ar    1  UNL1        0.2626
     23 H          17.0463   70.0301   -9.5698 H       1  UNL1        0.1734
     24 O          22.6226   74.3960   -3.4018 O.3     1  UNL1       -0.2703
     25 P          23.7920   75.2535   -4.1165 P.3     1  UNL1        0.2208
     26 O          25.0976   74.3117   -3.9466 O.co2   1  UNL1       -0.4371
     27 O          23.9569   76.6431   -3.5727 O.2     1  UNL1       -0.5170
     28 O          23.4443   75.1874   -5.6904 O.3     1  UNL1       -0.2858
     29 O          21.4559   76.1103   -6.5870 O.3     1  UNL1       -0.3226
     30 O          22.5318   73.4148   -9.5272 O.3     1  UNL1       -0.3794
     31 O          22.7491   72.6926   -6.7048 O.3     1  UNL1       -0.3775
     32 O          22.9617   76.2616   -9.9294 O.3     1  UNL1       -0.3792
     33 C          22.7549   74.3525   -8.4742 C.3     1  UNL1        0.1718
     34 C          22.0858   73.8528   -7.1935 C.3     1  UNL1        0.1968
     35 C          22.1537   75.6938   -8.9002 C.3     1  UNL1        0.1723
     36 C          22.1051   74.9313   -6.1094 C.3     1  UNL1        0.2706
     37 C          22.0929   76.6733   -7.7317 C.3     1  UNL1        0.1830
     38 H          22.9055   72.5545   -9.2788 H       1  UNL1        0.2105
     39 H          22.7409   72.0042   -7.3877 H       1  UNL1        0.2106
     40 H          23.0087   75.6479  -10.6791 H       1  UNL1        0.2106
     41 O          20.0550   77.7768   -7.3696 O.co2   1  UNL1       -0.5466
     42 O          21.5075   78.7323   -8.8449 O.co2   1  UNL1       -0.5466
     43 C          21.2193   77.8395   -8.0620 C.2     1  UNL1        0.0799
@<TRIPOS>UNITY_ATOM_ATTR
2 1
charge -1
26 1
charge -1
41 1
charge -1
@<TRIPOS>BOND
     1     1     4    1
     2     1    24    1
     3     1     2    1
     4     1     3    2
     5    25    28    1
     6    25    24    1
     7    25    26    1
     8    25    27    2
     9     6    11    1
    10     6    12    1
    11    29    36    1
    12    29    37    1
    13     7     9    1
    14     7    13    1
    15     8    10    1
    16     8    14    1
    17     4     5    1
    18    28    36    1
    19    30    33    1
    20    30    38    1
    21    31    34    1
    22    31    39    1
    23    32    35    1
    24    32    40    1
    25    41    43   ar
    26    15    19    2
    27    42    43   ar
    28    16    22    2
    29    17    12    1
    30    17    19   ar
    31    17    20   ar
    32    18    19   ar
    33    18    22   ar
    34    18    23    1
    35     9    10    1
    36     9    11    1
    37    10    12    1
    38    11     5    1
    39    33    34    1
    40    33    35    1
    41    34    36    1
    42    35    37    1
    43    37    43    1
    44    20    21   ar
    45    21    22   ar
@<TRIPOS>MOLECULE
*****
 43 45 0 0 0
SMALL
GASTEIGER

@<TRIPOS>ATOM
      1 P          22.6427   70.3773   -0.0609 P.3     1  UNL1        0.2189
      2 O          21.7038   69.4353    0.8610 O.co2   1  UNL1       -0.4371
      3 O          24.0222   69.8435   -0.3135 O.2     1  UNL1       -0.5170
      4 O          22.5703   71.8235    0.6610 O.3     1  UNL1       -0.3112
      5 C          21.5512   72.0517    1.6170 C.3     1  UNL1        0.1811
      6 O          23.3797   73.0510    2.8152 O.3     1  UNL1       -0.3308
      7 O          21.7171   72.6874    5.2840 O.3     1  UNL1       -0.3794
      8 O          21.3617   75.3294    4.7101 O.3     1  UNL1       -0.3779
      9 C          21.3050   73.0180    3.9576 C.3     1  UNL1        0.1713
     10 C          21.6598   74.4555    3.6414 C.3     1  UNL1        0.1895
     11 C          22.1902   72.2501    2.9855 C.3     1  UNL1        0.1764
     12 C          23.1502   74.3586    3.3635 C.3     1  UNL1        0.2383
     13 H          21.1657   73.1662    5.9231 H       1  UNL1        0.2105
     14 H          20.4013   75.3567    4.8471 H       1  UNL1        0.2106
     15 O          23.9117   76.9902    4.0500 O.2     1  UNL1       -0.2464
     16 O          24.8483   78.0582   -0.3348 O.2     1  UNL1       -0.2670
     17 N          23.5971   75.3451    2.4212 N.ar    1  UNL1       -0.2551
     18 N          24.3765   77.5199    1.8654 N.ar    1  UNL1       -0.2743
     19 C          23.9561   76.6382    2.8698 C.ar    1  UNL1        0.3323
     20 C          23.6779   75.0278    1.0707 C.ar    1  UNL1        0.0869
     21 C          24.0805   75.8790    0.1251 C.ar    1  UNL1        0.0795
     22 C          24.4728   77.2507    0.5097 C.ar    1  UNL1        0.2626
     23 H          24.6297   78.4268    2.1531 H       1  UNL1        0.1734
     24 O          21.7490   70.5899   -1.3909 O.3     1  UNL1       -0.2703
     25 P          22.0403   71.4272   -2.7428 P.3     1  UNL1        0.2208
     26 O          23.2997   70.6480   -3.3963 O.co2   1  UNL1       -0.4371
     27 O          22.2682   72.8945   -2.5214 O.2     1  UNL1       -0.5170
     28 O          20.7993   71.0815   -3.7138 O.3     1  UNL1       -0.2858
     29 O          19.3155   71.8887   -5.3740 O.3     1  UNL1       -0.3226
     30 O          16.7432   71.1819   -2.2194 O.3     1  UNL1       -0.3794
     31 O          19.3471   72.4230   -1.7573 O.3     1  UNL1       -0.3775
     32 O          16.8279   69.3468   -4.4724 O.3     1  UNL1       -0.3792
     33 C          17.8922   70.9637   -3.0379 C.3     1  UNL1        0.1718
     34 C          18.7651   72.2189   -3.0396 C.3     1  UNL1        0.1968
     35 C          17.4100   70.6489   -4.4558 C.3     1  UNL1        0.1723
     36 C          19.8800   72.1086   -4.0807 C.3     1  UNL1        0.2706
     37 C          18.5620   70.6810   -5.4560 C.3     1  UNL1        0.1830
     38 H          17.0251   71.3839   -1.3133 H       1  UNL1        0.2105
     39 H          18.6454   72.4936   -1.0918 H       1  UNL1        0.2106
     40 H          16.0934   69.3129   -3.8398 H       1  UNL1        0.2106
     41 O          18.9839   71.1940   -7.7055 O.co2   1  UNL1       -0.5466
     42 O          16.9360   70.3266   -7.2030 O.co2   1  UNL1       -0.5466
     43 C          18.0465   70.7018   -6.8582 C.2     1  UNL1        0.0799
@<TRIPOS>UNITY_ATOM_ATTR
2 1
charge -1
26 1
charge -1
41 1
charge -1
@<TRIPOS>BOND
     1     1     4    1
     2     1    24    1
     3     1     2    1
     4     1     3    2
     5    25    28    1
     6    25    24    1
     7    25    26    1
     8    25    27    2
     9     6    11    1
    10     6    12    1
    11    29    36    1
    12    29    37    1
    13     7     9    1
    14     7    13    1
    15     8    10    1
    16     8    14    1
    17     4     5    1
    18    28    36    1
    19    30    33    1
    20    30    38    1
    21    31    34    1
    22    31    39    1
    23    32    35    1
    24    32    40    1
    25    41    43   ar
    26    15    19    2
    27    42    43   ar
    28    16    22    2
    29    17    12    1
    30    17    19   ar
    31    17    20   ar
    32    18    19   ar
    33    18    22   ar
    34    18    23    1
    35     9    10    1
    36     9    11    1
    37    10    12    1
    38    11     5    1
    39    33    34    1
    40    33    35    1
    41    34    36    1
    42    35    37    1
    43    37    43    1
    44    20    21   ar
    45    21    22   ar
@<TRIPOS>MOLECULE
*****
 43 45 0 0 0
SMALL
GASTEIGER

@<TRIPOS>ATOM
      1 P          22.5931   72.5175   -2.5012 P.3     1  UNL1        0.2189
      2 O          23.3487   71.5741   -3.5772 O.co2   1  UNL1       -0.4371
      3 O          23.3253   72.7135   -1.2061 O.2     1  UNL1       -0.5170
      4 O          21.1169   71.8660   -2.3822 O.3     1  UNL1       -0.3112
      5 C          20.4789   71.4168   -3.5635 C.3     1  UNL1        0.1811
      6 O          18.5328   72.1572   -4.7643 O.3     1  UNL1       -0.3308
      7 O          16.9281   70.9463   -2.5394 O.3     1  UNL1       -0.3794
      8 O          16.7494   69.0583   -4.4989 O.3     1  UNL1       -0.3779
      9 C          18.1498   70.4929   -3.1230 C.3     1  UNL1        0.1713
     10 C          17.8878   69.8942   -4.4887 C.3     1  UNL1        0.1895
     11 C          18.9885   71.7162   -3.4670 C.3     1  UNL1        0.1764
     12 C          17.7103   71.1343   -5.3480 C.3     1  UNL1        0.2383
     13 H          16.3753   70.1821   -2.3111 H       1  UNL1        0.2105
     14 H          16.9124   68.2833   -3.9379 H       1  UNL1        0.2106
     15 O          15.9394   70.6482   -7.4937 O.2     1  UNL1       -0.2464
     16 O          19.4018   70.3375  -10.5202 O.2     1  UNL1       -0.2670
     17 N          18.1221   70.9230   -6.7069 N.ar    1  UNL1       -0.2551
     18 N          17.6656   70.4929   -8.9988 N.ar    1  UNL1       -0.2743
     19 C          17.1522   70.6866   -7.7097 C.ar    1  UNL1        0.3323
     20 C          19.4720   70.9525   -7.0351 C.ar    1  UNL1        0.0869
     21 C          19.9462   70.7662   -8.2685 C.ar    1  UNL1        0.0795
     22 C          18.9992   70.5125   -9.3741 C.ar    1  UNL1        0.2626
     23 H          17.0097   70.3246   -9.7134 H       1  UNL1        0.1734
     24 O          22.3246   73.8760   -3.3351 O.3     1  UNL1       -0.2703
     25 P          23.3238   74.8025   -4.2050 P.3     1  UNL1        0.2208
     26 O          24.7620   74.0881   -4.0013 O.co2   1  UNL1       -0.4371
     27 O          23.2971   76.2564   -3.8316 O.2     1  UNL1       -0.5170
     28 O          22.9318   74.4982   -5.7400 O.3     1  UNL1       -0.2858
     29 O          23.6319   75.5167   -7.7604 O.3     1  UNL1       -0.3226
     30 O          19.7162   74.5274   -8.6304 O.3     1  UNL1       -0.3794
     31 O          20.4163   75.6500   -6.0257 O.3     1  UNL1       -0.3775
     32 O          21.8979   72.9492   -9.7259 O.3     1  UNL1       -0.3792
     33 C          20.9915   74.3740   -8.0074 C.3     1  UNL1        0.1718
     34 C          21.2915   75.6014   -7.1466 C.3     1  UNL1        0.1968
     35 C          22.0421   74.2278   -9.1105 C.3     1  UNL1        0.1723
     36 C          22.7374   75.5803   -6.6489 C.3     1  UNL1        0.2706
     37 C          23.4571   74.3430   -8.5509 C.3     1  UNL1        0.1830
     38 H          19.0324   74.6222   -7.9486 H       1  UNL1        0.2105
     39 H          19.4970   75.6633   -6.3342 H       1  UNL1        0.2106
     40 H          21.0014   72.8629  -10.0861 H       1  UNL1        0.2106
     41 O          25.6050   75.0518   -9.1718 O.co2   1  UNL1       -0.5466
     42 O          24.2557   74.2499  -10.8257 O.co2   1  UNL1       -0.5466
     43 C          24.4494   74.5294   -9.6521 C.2     1  UNL1        0.0799
@<TRIPOS>UNITY_ATOM_ATTR
2 1
charge -1
26 1
charge -1
41 1
charge -1
@<TRIPOS>BOND
     1     1     4    1
     2     1    24    1
     3     1     2    1
     4     1     3    2
     5    25    28    1
     6    25    24    1
     7    25    26    1
     8    25    27    2
     9     6    11    1
    10     6    12    1
    11    29    36    1
    12    29    37    1
    13     7     9    1
    14     7    13    1
    15     8    10    1
    16     8    14    1
    17     4     5    1
    18    28    36    1
    19    30    33    1
    20    30    38    1
    21    31    34    1
    22    31    39    1
    23    32    35    1
    24    32    40    1
    25    41    43   ar
    26    15    19    2
    27    42    43   ar
    28    16    22    2
    29    17    12    1
    30    17    19   ar
    31    17    20   ar
    32    18    19   ar
    33    18    22   ar
    34    18    23    1
    35     9    10    1
    36     9    11    1
    37    10    12    1
    38    11     5    1
    39    33    34    1
    40    33    35    1
    41    34    36    1
    42    35    37    1
    43    37    43    1
    44    20    21   ar
    45    21    22   ar
@<TRIPOS>MOLECULE
*****
 43 45 0 0 0
SMALL
GASTEIGER

@<TRIPOS>ATOM
      1 P          21.6207   73.6398   -5.6538 P.3     1  UNL1        0.2189
      2 O          21.6977   75.2543   -5.7336 O.co2   1  UNL1       -0.4371
      3 O          22.9402   72.9513   -5.4616 O.2     1  UNL1       -0.5170
      4 O          20.7983   73.2238   -6.9836 O.3     1  UNL1       -0.3112
      5 C          21.4618   72.4683   -7.9803 C.3     1  UNL1        0.1811
      6 O          19.9139   70.6500   -8.2547 O.3     1  UNL1       -0.3308
      7 O          18.6081   72.3259  -10.3708 O.3     1  UNL1       -0.3794
      8 O          16.9631   72.6862   -8.2260 O.3     1  UNL1       -0.3779
      9 C          19.2145   72.7313   -9.1434 C.3     1  UNL1        0.1713
     10 C          18.3186   72.3792   -7.9748 C.3     1  UNL1        0.1895
     11 C          20.4229   71.8379   -8.8989 C.3     1  UNL1        0.1764
     12 C          18.5627   70.8869   -7.8287 C.3     1  UNL1        0.2383
     13 H          17.8333   72.8825  -10.5484 H       1  UNL1        0.2105
     14 H          16.8598   73.6475   -8.3107 H       1  UNL1        0.2106
     15 O          16.1081   70.1188   -6.6619 O.2     1  UNL1       -0.2464
     16 O          18.1141   69.1797   -2.6198 O.2     1  UNL1       -0.2670
     17 N          18.4149   70.4375   -6.4733 N.ar    1  UNL1       -0.2551
     18 N          17.1094   69.6528   -4.6495 N.ar    1  UNL1       -0.2743
     19 C          17.1372   70.0753   -5.9851 C.ar    1  UNL1        0.3323
     20 C          19.5270   70.3576   -5.6439 C.ar    1  UNL1        0.0869
     21 C          19.4848   69.9529   -4.3730 C.ar    1  UNL1        0.0795
     22 C          18.1881   69.5572   -3.7853 C.ar    1  UNL1        0.2626
     23 H          16.2305   69.3973   -4.2866 H       1  UNL1        0.1734
     24 O          20.5499   73.3856   -4.4699 O.3     1  UNL1       -0.2703
     25 P          20.5426   73.8621   -2.9250 P.3     1  UNL1        0.2208
     26 O          18.9714   74.1051   -2.6204 O.co2   1  UNL1       -0.4371
     27 O          21.4180   75.0485   -2.6424 O.2     1  UNL1       -0.5170
     28 O          20.9198   72.5367   -2.0862 O.3     1  UNL1       -0.2858
     29 O          22.7658   73.1778   -0.7481 O.3     1  UNL1       -0.3226
     30 O          22.0542   69.3335    0.5873 O.3     1  UNL1       -0.3794
     31 O          21.9398   69.9553   -2.2648 O.3     1  UNL1       -0.3775
     32 O          21.2478   71.6121    2.2026 O.3     1  UNL1       -0.3792
     33 C          21.7098   70.6142    0.0588 C.3     1  UNL1        0.1718
     34 C          22.4416   70.8350   -1.2653 C.3     1  UNL1        0.1968
     35 C          22.1260   71.6749    1.0803 C.3     1  UNL1        0.1723
     36 C          22.2805   72.2780   -1.7454 C.3     1  UNL1        0.2706
     37 C          22.0576   73.0784    0.4854 C.3     1  UNL1        0.1830
     38 H          21.7990   68.6433   -0.0450 H       1  UNL1        0.2105
     39 H          22.0386   69.0379   -1.9667 H       1  UNL1        0.2106
     40 H          21.2818   70.7237    2.5904 H       1  UNL1        0.2106
     41 O          22.9304   75.2432    0.7169 O.co2   1  UNL1       -0.5466
     42 O          23.1491   73.8374    2.4988 O.co2   1  UNL1       -0.5466
     43 C          22.7672   74.0603    1.3597 C.2     1  UNL1        0.0799
@<TRIPOS>UNITY_ATOM_ATTR
2 1
charge -1
26 1
charge -1
41 1
charge -1
@<TRIPOS>BOND
     1     1     4    1
     2     1    24    1
     3     1     2    1
     4     1     3    2
     5    25    28    1
     6    25    24    1
     7    25    26    1
     8    25    27    2
     9     6    11    1
    10     6    12    1
    11    29    36    1
    12    29    37    1
    13     7     9    1
    14     7    13    1
    15     8    10    1
    16     8    14    1
    17     4     5    1
    18    28    36    1
    19    30    33    1
    20    30    38    1
    21    31    34    1
    22    31    39    1
    23    32    35    1
    24    32    40    1
    25    41    43   ar
    26    15    19    2
    27    42    43   ar
    28    16    22    2
    29    17    12    1
    30    17    19   ar
    31    17    20   ar
    32    18    19   ar
    33    18    22   ar
    34    18    23    1
    35     9    10    1
    36     9    11    1
    37    10    12    1
    38    11     5    1
    39    33    34    1
    40    33    35    1
    41    34    36    1
    42    35    37    1
    43    37    43    1
    44    20    21   ar
    45    21    22   ar
@<TRIPOS>MOLECULE
*****
 43 45 0 0 0
SMALL
GASTEIGER

@<TRIPOS>ATOM
      1 P          22.4530   72.8487   -3.8361 P.3     1  UNL1        0.2189
      2 O          23.7289   71.9114   -3.5008 O.co2   1  UNL1       -0.4371
      3 O          21.9523   73.6724   -2.6860 O.2     1  UNL1       -0.5170
      4 O          21.3809   71.8270   -4.4879 O.3     1  UNL1       -0.3112
      5 C          20.6969   70.9290   -3.6335 C.3     1  UNL1        0.1811
      6 O          18.8170   71.9503   -4.7293 O.3     1  UNL1       -0.3308
      7 O          17.1500   70.8404   -2.4975 O.3     1  UNL1       -0.3794
      8 O          16.6812   69.0779   -4.5248 O.3     1  UNL1       -0.3779
      9 C          18.2884   70.2711   -3.1445 C.3     1  UNL1        0.1713
     10 C          17.9121   69.7704   -4.5228 C.3     1  UNL1        0.1895
     11 C          19.2575   71.3997   -3.4691 C.3     1  UNL1        0.1764
     12 C          17.8585   71.0605   -5.3233 C.3     1  UNL1        0.2383
     13 H          16.5164   70.1382   -2.2803 H       1  UNL1        0.2105
     14 H          16.7671   68.2644   -4.0025 H       1  UNL1        0.2106
     15 O          15.9901   70.4610   -7.3545 O.2     1  UNL1       -0.2464
     16 O          19.2730   70.3239  -10.5867 O.2     1  UNL1       -0.2670
     17 N          18.1977   70.8631   -6.7041 N.ar    1  UNL1       -0.2551
     18 N          17.6271   70.3923   -8.9622 N.ar    1  UNL1       -0.2743
     19 C          17.1833   70.5658   -7.6447 C.ar    1  UNL1        0.3323
     20 C          19.5213   70.9660   -7.1148 C.ar    1  UNL1        0.0869
     21 C          19.9290   70.7980   -8.3743 C.ar    1  UNL1        0.0795
     22 C          18.9320   70.4840   -9.4187 C.ar    1  UNL1        0.2626
     23 H          16.9392   70.1825   -9.6346 H       1  UNL1        0.1734
     24 O          22.9578   73.7069   -5.1095 O.3     1  UNL1       -0.2703
     25 P          22.3573   75.0422   -5.7950 P.3     1  UNL1        0.2208
     26 O          22.9693   76.2326   -4.8846 O.co2   1  UNL1       -0.4371
     27 O          20.8602   75.0569   -5.9073 O.2     1  UNL1       -0.5170
     28 O          23.1355   75.1650   -7.2027 O.3     1  UNL1       -0.2858
     29 O          22.7571   76.6956   -8.9700 O.3     1  UNL1       -0.3226
     30 O          24.1884   73.3979  -11.0059 O.3     1  UNL1       -0.3794
     31 O          22.2743   73.0746   -8.8227 O.3     1  UNL1       -0.3775
     32 O          25.9023   75.7071  -10.5801 O.3     1  UNL1       -0.3792
     33 C          24.0680   74.2985   -9.9047 C.3     1  UNL1        0.1718
     34 C          22.6189   74.3204   -9.4176 C.3     1  UNL1        0.1968
     35 C          24.4897   75.6896  -10.3832 C.3     1  UNL1        0.1723
     36 C          22.4022   75.4372   -8.3956 C.3     1  UNL1        0.2706
     37 C          24.1262   76.7638   -9.3622 C.3     1  UNL1        0.1830
     38 H          23.9255   72.5071  -10.7255 H       1  UNL1        0.2105
     39 H          22.4097   72.3614   -9.4656 H       1  UNL1        0.2106
     40 H          26.1469   75.0277  -11.2278 H       1  UNL1        0.2106
     41 O          23.0651   78.4873  -10.5475 O.co2   1  UNL1       -0.5466
     42 O          25.2358   78.8275   -9.9381 O.co2   1  UNL1       -0.5466
     43 C          24.2352   78.1267   -9.9646 C.2     1  UNL1        0.0799
@<TRIPOS>UNITY_ATOM_ATTR
2 1
charge -1
26 1
charge -1
41 1
charge -1
@<TRIPOS>BOND
     1     1     4    1
     2     1    24    1
     3     1     2    1
     4     1     3    2
     5    25    28    1
     6    25    24    1
     7    25    26    1
     8    25    27    2
     9     6    11    1
    10     6    12    1
    11    29    36    1
    12    29    37    1
    13     7     9    1
    14     7    13    1
    15     8    10    1
    16     8    14    1
    17     4     5    1
    18    28    36    1
    19    30    33    1
    20    30    38    1
    21    31    34    1
    22    31    39    1
    23    32    35    1
    24    32    40    1
    25    41    43   ar
    26    15    19    2
    27    42    43   ar
    28    16    22    2
    29    17    12    1
    30    17    19   ar
    31    17    20   ar
    32    18    19   ar
    33    18    22   ar
    34    18    23    1
    35     9    10    1
    36     9    11    1
    37    10    12    1
    38    11     5    1
    39    33    34    1
    40    33    35    1
    41    34    36    1
    42    35    37    1
    43    37    43    1
    44    20    21   ar
    45    21    22   ar
@<TRIPOS>MOLECULE
*****
 43 45 0 0 0
SMALL
GASTEIGER

@<TRIPOS>ATOM
      1 P          22.9323   72.1970   -3.3553 P.3     1  UNL1        0.2189
      2 O          23.5228   70.7864   -2.8259 O.co2   1  UNL1       -0.4371
      3 O          23.8043   72.9192   -4.3402 O.2     1  UNL1       -0.5170
      4 O          22.5853   73.0069   -1.9982 O.3     1  UNL1       -0.3112
      5 C          22.6679   72.3216   -0.7621 C.3     1  UNL1        0.1811
      6 O          21.7393   72.5871    1.4390 O.3     1  UNL1       -0.3308
      7 O          19.3926   73.8782    0.0908 O.3     1  UNL1       -0.3794
      8 O          20.8005   76.0216    1.0181 O.3     1  UNL1       -0.3779
      9 C          20.7782   73.9452   -0.2470 C.3     1  UNL1        0.1713
     10 C          21.5136   74.8368    0.7310 C.3     1  UNL1        0.1895
     11 C          21.3971   72.5832    0.0360 C.3     1  UNL1        0.1764
     12 C          21.6523   73.9298    1.9418 C.3     1  UNL1        0.2383
     13 H          18.9755   74.7373   -0.0816 H       1  UNL1        0.2105
     14 H          20.7397   76.5647    0.2161 H       1  UNL1        0.2106
     15 O          23.9669   75.1740    0.9068 O.2     1  UNL1       -0.2464
     16 O          26.1123   74.9855    4.9818 O.2     1  UNL1       -0.2670
     17 N          22.8302   74.2178    2.7102 N.ar    1  UNL1       -0.2551
     18 N          25.0336   75.0780    2.9372 N.ar    1  UNL1       -0.2743
     19 C          23.9387   74.8456    2.0944 C.ar    1  UNL1        0.3323
     20 C          22.8789   73.8812    4.0575 C.ar    1  UNL1        0.0869
     21 C          23.9295   74.1092    4.8481 C.ar    1  UNL1        0.0795
     22 C          25.1291   74.7607    4.2824 C.ar    1  UNL1        0.2626
     23 H          25.8181   75.5122    2.5304 H       1  UNL1        0.1734
     24 O          21.4730   71.7907   -3.9193 O.3     1  UNL1       -0.2703
     25 P          20.4512   70.6196   -3.4740 P.3     1  UNL1        0.2208
     26 O          19.5739   71.3183   -2.3068 O.co2   1  UNL1       -0.4371
     27 O          21.1218   69.3411   -3.0622 O.2     1  UNL1       -0.5170
     28 O          19.4323   70.4714   -4.7159 O.3     1  UNL1       -0.2858
     29 O          18.6681   72.3785   -5.8940 O.3     1  UNL1       -0.3226
     30 O          15.8518   69.5491   -6.9574 O.3     1  UNL1       -0.3794
     31 O          16.8016   69.7298   -4.2007 O.3     1  UNL1       -0.3775
     32 O          17.9200   70.3305   -8.8450 O.3     1  UNL1       -0.3792
     33 C          17.1453   70.0242   -6.5842 C.3     1  UNL1        0.1718
     34 C          17.0680   70.6944   -5.2123 C.3     1  UNL1        0.1968
     35 C          17.6032   71.0299   -7.6429 C.3     1  UNL1        0.1723
     36 C          18.3756   71.4152   -4.8811 C.3     1  UNL1        0.2706
     37 C          18.8402   71.7969   -7.1844 C.3     1  UNL1        0.1830
     38 H          15.5401   68.9083   -6.2990 H       1  UNL1        0.2105
     39 H          15.9734   69.2684   -4.4046 H       1  UNL1        0.2106
     40 H          17.1411   69.8380   -9.1474 H       1  UNL1        0.2106
     41 O          19.0325   74.1298   -7.3336 O.co2   1  UNL1       -0.5466
     42 O          19.2979   72.9389   -9.2599 O.co2   1  UNL1       -0.5466
     43 C          19.0820   72.9845   -8.0581 C.2     1  UNL1        0.0799
@<TRIPOS>UNITY_ATOM_ATTR
2 1
charge -1
26 1
charge -1
41 1
charge -1
@<TRIPOS>BOND
     1     1     4    1
     2     1    24    1
     3     1     2    1
     4     1     3    2
     5    25    28    1
     6    25    24    1
     7    25    26    1
     8    25    27    2
     9     6    11    1
    10     6    12    1
    11    29    36    1
    12    29    37    1
    13     7     9    1
    14     7    13    1
    15     8    10    1
    16     8    14    1
    17     4     5    1
    18    28    36    1
    19    30    33    1
    20    30    38    1
    21    31    34    1
    22    31    39    1
    23    32    35    1
    24    32    40    1
    25    41    43   ar
    26    15    19    2
    27    42    43   ar
    28    16    22    2
    29    17    12    1
    30    17    19   ar
    31    17    20   ar
    32    18    19   ar
    33    18    22   ar
    34    18    23    1
    35     9    10    1
    36     9    11    1
    37    10    12    1
    38    11     5    1
    39    33    34    1
    40    33    35    1
    41    34    36    1
    42    35    37    1
    43    37    43    1
    44    20    21   ar
    45    21    22   ar
@<TRIPOS>MOLECULE
*****
 43 45 0 0 0
SMALL
GASTEIGER

@<TRIPOS>ATOM
      1 P          23.7023   73.9616   -4.0019 P.3     1  UNL1        0.2189
      2 O          25.2611   74.3960   -3.9885 O.co2   1  UNL1       -0.4371
      3 O          23.4426   72.5225   -3.6652 O.2     1  UNL1       -0.5170
      4 O          23.1752   74.4502   -5.4515 O.3     1  UNL1       -0.3112
      5 C          22.0571   73.7943   -6.0207 C.3     1  UNL1        0.1811
      6 O          21.2367   73.1101   -8.1740 O.3     1  UNL1       -0.3308
      7 O          21.6220   75.9611   -9.0197 O.3     1  UNL1       -0.3794
      8 O          18.9369   75.8332   -8.5611 O.3     1  UNL1       -0.3779
      9 C          21.1987   75.4419   -7.7588 C.3     1  UNL1        0.1713
     10 C          19.7718   74.9438   -7.8495 C.3     1  UNL1        0.1895
     11 C          21.9694   74.1549   -7.4981 C.3     1  UNL1        0.1764
     12 C          19.9471   73.6120   -8.5592 C.3     1  UNL1        0.2383
     13 H          21.1431   76.7838   -9.2082 H       1  UNL1        0.2105
     14 H          18.8568   76.6656   -8.0684 H       1  UNL1        0.2106
     15 O          19.1878   71.3978  -10.1394 O.2     1  UNL1       -0.2464
     16 O          16.0845   70.0091   -7.0273 O.2     1  UNL1       -0.2670
     17 N          18.9434   72.6559   -8.1859 N.ar    1  UNL1       -0.2551
     18 N          17.6422   70.7089   -8.5884 N.ar    1  UNL1       -0.2743
     19 C          18.6369   71.5798   -9.0520 C.ar    1  UNL1        0.3323
     20 C          18.2761   72.7881   -6.9743 C.ar    1  UNL1        0.0869
     21 C          17.3302   71.9498   -6.5459 C.ar    1  UNL1        0.0795
     22 C          16.9500   70.7993   -7.3916 C.ar    1  UNL1        0.2626
     23 H          17.4101   69.9531   -9.1751 H       1  UNL1        0.1734
     24 O          23.0211   75.0231   -2.9909 O.3     1  UNL1       -0.2703
     25 P          21.9067   74.8250   -1.8366 P.3     1  UNL1        0.2208
     26 O          20.5268   75.2256   -2.5821 O.co2   1  UNL1       -0.4371
     27 O          22.1778   75.5995   -0.5794 O.2     1  UNL1       -0.5170
     28 O          21.8097   73.2278   -1.6312 O.3     1  UNL1       -0.2858
     29 O          19.6823   72.1901   -1.7130 O.3     1  UNL1       -0.3226
     30 O          21.9841   69.2506    0.0558 O.3     1  UNL1       -0.3794
     31 O          22.2955   72.0475    0.8399 O.3     1  UNL1       -0.3775
     32 O          21.2049   69.0121   -2.7347 O.3     1  UNL1       -0.3792
     33 C          21.7220   70.3589   -0.8050 C.3     1  UNL1        0.1718
     34 C          21.2407   71.5490    0.0252 C.3     1  UNL1        0.1968
     35 C          20.6432   69.9363   -1.8048 C.3     1  UNL1        0.1723
     36 C          20.7329   72.6753   -0.8762 C.3     1  UNL1        0.2706
     37 C          20.0989   71.1349   -2.5767 C.3     1  UNL1        0.1830
     38 H          22.6669   69.4957    0.7000 H       1  UNL1        0.2105
     39 H          22.6227   71.3380    1.4143 H       1  UNL1        0.2106
     40 H          21.5552   68.2445   -2.2562 H       1  UNL1        0.2106
     41 O          19.1198   70.0988   -4.4393 O.co2   1  UNL1       -0.5466
     42 O          17.7118   71.0456   -2.9161 O.co2   1  UNL1       -0.5466
     43 C          18.8407   70.7747   -3.2973 C.2     1  UNL1        0.0799
@<TRIPOS>UNITY_ATOM_ATTR
2 1
charge -1
26 1
charge -1
41 1
charge -1
@<TRIPOS>BOND
     1     1     4    1
     2     1    24    1
     3     1     2    1
     4     1     3    2
     5    25    28    1
     6    25    24    1
     7    25    26    1
     8    25    27    2
     9     6    11    1
    10     6    12    1
    11    29    36    1
    12    29    37    1
    13     7     9    1
    14     7    13    1
    15     8    10    1
    16     8    14    1
    17     4     5    1
    18    28    36    1
    19    30    33    1
    20    30    38    1
    21    31    34    1
    22    31    39    1
    23    32    35    1
    24    32    40    1
    25    41    43   ar
    26    15    19    2
    27    42    43   ar
    28    16    22    2
    29    17    12    1
    30    17    19   ar
    31    17    20   ar
    32    18    19   ar
    33    18    22   ar
    34    18    23    1
    35     9    10    1
    36     9    11    1
    37    10    12    1
    38    11     5    1
    39    33    34    1
    40    33    35    1
    41    34    36    1
    42    35    37    1
    43    37    43    1
    44    20    21   ar
    45    21    22   ar
@<TRIPOS>MOLECULE
*****
 43 45 0 0 0
SMALL
GASTEIGER

@<TRIPOS>ATOM
      1 P          22.5989   71.9023   -2.7977 P.3     1  UNL1        0.2189
      2 O          23.1902   73.3884   -3.0442 O.co2   1  UNL1       -0.4371
      3 O          23.4198   70.7892   -3.3800 O.2     1  UNL1       -0.5170
      4 O          21.0722   71.9992   -3.3246 O.3     1  UNL1       -0.3112
      5 C          20.7801   72.8822   -4.3921 C.3     1  UNL1        0.1811
      6 O          20.1923   71.7752   -6.4431 O.3     1  UNL1       -0.3308
      7 O          22.8890   72.6133   -7.4512 O.3     1  UNL1       -0.3794
      8 O          21.2278   74.4458   -8.5993 O.3     1  UNL1       -0.3779
      9 C          21.9900   73.3107   -6.5887 C.3     1  UNL1        0.1713
     10 C          20.8217   73.8578   -7.3812 C.3     1  UNL1        0.1895
     11 C          21.3126   72.2861   -5.6888 C.3     1  UNL1        0.1764
     12 C          19.9707   72.6162   -7.5863 C.3     1  UNL1        0.2383
     13 H          23.3338   73.2473   -8.0359 H       1  UNL1        0.2105
     14 H          21.7662   75.2320   -8.4151 H       1  UNL1        0.2106
     15 O          18.6125   73.1650  -10.0009 O.2     1  UNL1       -0.2464
     16 O          14.5984   73.7706   -7.8181 O.2     1  UNL1       -0.2670
     17 N          18.5707   72.9204   -7.6778 N.ar    1  UNL1       -0.2551
     18 N          16.6147   73.4671   -8.9114 N.ar    1  UNL1       -0.2743
     19 C          17.9860   73.1811   -8.9397 C.ar    1  UNL1        0.3323
     20 C          17.7921   72.9566   -6.5274 C.ar    1  UNL1        0.0869
     21 C          16.4862   73.2306   -6.5163 C.ar    1  UNL1        0.0795
     22 C          15.7986   73.5154   -7.7928 C.ar    1  UNL1        0.2626
     23 H          16.1859   73.6540   -9.7777 H       1  UNL1        0.1734
     24 O          22.4260   71.8424   -1.1917 O.3     1  UNL1       -0.2703
     25 P          21.8618   70.6735   -0.2277 P.3     1  UNL1        0.2208
     26 O          23.2005   69.8730    0.2054 O.co2   1  UNL1       -0.4371
     27 O          20.8035   69.8140   -0.8565 O.2     1  UNL1       -0.5170
     28 O          21.3934   71.4390    1.1128 O.3     1  UNL1       -0.2858
     29 O          22.0453   73.7148    1.0425 O.3     1  UNL1       -0.3226
     30 O          20.4031   73.4272    4.8225 O.3     1  UNL1       -0.3794
     31 O          22.1282   71.3066    3.7921 O.3     1  UNL1       -0.3775
     32 O          18.9219   74.7227    2.6827 O.3     1  UNL1       -0.3792
     33 C          20.5484   73.1134    3.4374 C.3     1  UNL1        0.1718
     34 C          21.9573   72.5791    3.1787 C.3     1  UNL1        0.1968
     35 C          20.3090   74.3941    2.6347 C.3     1  UNL1        0.1723
     36 C          22.2264   72.4492    1.6789 C.3     1  UNL1        0.2706
     37 C          20.7192   74.2215    1.1750 C.3     1  UNL1        0.1830
     38 H          20.5509   72.6281    5.3525 H       1  UNL1        0.2105
     39 H          21.9588   71.3816    4.7440 H       1  UNL1        0.2106
     40 H          18.6480   74.8351    3.6064 H       1  UNL1        0.2106
     41 O          19.5756   76.1367    0.4497 O.co2   1  UNL1       -0.5466
     42 O          21.8121   76.0346    0.0175 O.co2   1  UNL1       -0.5466
     43 C          20.7952   75.5448    0.4854 C.2     1  UNL1        0.0799
@<TRIPOS>UNITY_ATOM_ATTR
2 1
charge -1
26 1
charge -1
41 1
charge -1
@<TRIPOS>BOND
     1     1     4    1
     2     1    24    1
     3     1     2    1
     4     1     3    2
     5    25    28    1
     6    25    24    1
     7    25    26    1
     8    25    27    2
     9     6    11    1
    10     6    12    1
    11    29    36    1
    12    29    37    1
    13     7     9    1
    14     7    13    1
    15     8    10    1
    16     8    14    1
    17     4     5    1
    18    28    36    1
    19    30    33    1
    20    30    38    1
    21    31    34    1
    22    31    39    1
    23    32    35    1
    24    32    40    1
    25    41    43   ar
    26    15    19    2
    27    42    43   ar
    28    16    22    2
    29    17    12    1
    30    17    19   ar
    31    17    20   ar
    32    18    19   ar
    33    18    22   ar
    34    18    23    1
    35     9    10    1
    36     9    11    1
    37    10    12    1
    38    11     5    1
    39    33    34    1
    40    33    35    1
    41    34    36    1
    42    35    37    1
    43    37    43    1
    44    20    21   ar
    45    21    22   ar
@<TRIPOS>MOLECULE
*****
 43 45 0 0 0
SMALL
GASTEIGER

@<TRIPOS>ATOM
      1 P          22.7122   70.3896    0.0412 P.3     1  UNL1        0.2189
      2 O          21.7232   69.4074    0.8634 O.co2   1  UNL1       -0.4371
      3 O          24.0601   69.8110   -0.2756 O.2     1  UNL1       -0.5170
      4 O          22.7200   71.7522    0.9136 O.3     1  UNL1       -0.3112
      5 C          21.4832   72.3794    1.1989 C.3     1  UNL1        0.1811
      6 O          22.5231   72.5654    3.3580 O.3     1  UNL1       -0.3308
      7 O          19.7712   73.0777    4.4330 O.3     1  UNL1       -0.3794
      8 O          20.8377   75.5842    4.3068 O.3     1  UNL1       -0.3779
      9 C          20.3452   73.4815    3.1897 C.3     1  UNL1        0.1713
     10 C          21.3291   74.6112    3.4089 C.3     1  UNL1        0.1895
     11 C          21.2521   72.3588    2.7044 C.3     1  UNL1        0.1764
     12 C          22.5408   73.8732    3.9519 C.3     1  UNL1        0.2383
     13 H          19.1875   73.7792    4.7630 H       1  UNL1        0.2105
     14 H          20.0673   76.0258    3.9151 H       1  UNL1        0.2106
     15 O          23.0779   75.0744    1.4529 O.2     1  UNL1       -0.2464
     16 O          27.3120   76.3376    2.7646 O.2     1  UNL1       -0.2670
     17 N          23.7753   74.5230    3.6135 N.ar    1  UNL1       -0.2551
     18 N          25.1866   75.7015    2.1082 N.ar    1  UNL1       -0.2743
     19 C          23.9434   75.0946    2.3301 C.ar    1  UNL1        0.3323
     20 C          24.8021   74.5910    4.5474 C.ar    1  UNL1        0.0869
     21 C          25.9815   75.1730    4.3213 C.ar    1  UNL1        0.0795
     22 C          26.2385   75.7936    3.0052 C.ar    1  UNL1        0.2626
     23 H          25.3278   76.1047    1.2212 H       1  UNL1        0.1734
     24 O          21.8310   70.7917   -1.2529 O.3     1  UNL1       -0.2703
     25 P          22.2430   71.5344   -2.6284 P.3     1  UNL1        0.2208
     26 O          23.3559   70.5455   -3.2638 O.co2   1  UNL1       -0.4371
     27 O          22.7053   72.9514   -2.4486 O.2     1  UNL1       -0.5170
     28 O          20.9553   71.3668   -3.5856 O.3     1  UNL1       -0.2858
     29 O          19.0558   72.7299   -3.9637 O.3     1  UNL1       -0.3226
     30 O          17.4351   68.9387   -4.2243 O.3     1  UNL1       -0.3794
     31 O          19.3885   69.5745   -2.1472 O.3     1  UNL1       -0.3775
     32 O          17.9071   70.4928   -6.6353 O.3     1  UNL1       -0.3792
     33 C          18.4503   69.9338   -4.3555 C.3     1  UNL1        0.1718
     34 C          18.7566   70.5363   -2.9841 C.3     1  UNL1        0.1968
     35 C          17.9331   71.0142   -5.3080 C.3     1  UNL1        0.1723
     36 C          19.6671   71.7581   -3.1143 C.3     1  UNL1        0.2706
     37 C          18.8278   72.2502   -5.2869 C.3     1  UNL1        0.1830
     38 H          17.7414   68.2414   -3.6233 H       1  UNL1        0.2105
     39 H          18.8164   68.7964   -2.0604 H       1  UNL1        0.2106
     40 H          17.3411   69.7056   -6.6625 H       1  UNL1        0.2106
     41 O          18.9506   73.9425   -6.9063 O.co2   1  UNL1       -0.5466
     42 O          17.0336   73.8152   -5.6783 O.co2   1  UNL1       -0.5466
     43 C          18.1521   73.4056   -5.9508 C.2     1  UNL1        0.0799
@<TRIPOS>UNITY_ATOM_ATTR
2 1
charge -1
26 1
charge -1
41 1
charge -1
@<TRIPOS>BOND
     1     1     4    1
     2     1    24    1
     3     1     2    1
     4     1     3    2
     5    25    28    1
     6    25    24    1
     7    25    26    1
     8    25    27    2
     9     6    11    1
    10     6    12    1
    11    29    36    1
    12    29    37    1
    13     7     9    1
    14     7    13    1
    15     8    10    1
    16     8    14    1
    17     4     5    1
    18    28    36    1
    19    30    33    1
    20    30    38    1
    21    31    34    1
    22    31    39    1
    23    32    35    1
    24    32    40    1
    25    41    43   ar
    26    15    19    2
    27    42    43   ar
    28    16    22    2
    29    17    12    1
    30    17    19   ar
    31    17    20   ar
    32    18    19   ar
    33    18    22   ar
    34    18    23    1
    35     9    10    1
    36     9    11    1
    37    10    12    1
    38    11     5    1
    39    33    34    1
    40    33    35    1
    41    34    36    1
    42    35    37    1
    43    37    43    1
    44    20    21   ar
    45    21    22   ar
@<TRIPOS>MOLECULE
*****
 43 45 0 0 0
SMALL
GASTEIGER

@<TRIPOS>ATOM
      1 P          22.0215   72.6136   -4.4876 P.3     1  UNL1        0.2189
      2 O          23.2104   71.6511   -3.9593 O.co2   1  UNL1       -0.4371
      3 O          20.6369   72.1762   -4.1092 O.2     1  UNL1       -0.5170
      4 O          22.3068   72.7481   -6.0745 O.3     1  UNL1       -0.3112
      5 C          21.2106   72.9726   -6.9419 C.3     1  UNL1        0.1811
      6 O          19.1449   71.7463   -6.8590 O.3     1  UNL1       -0.3308
      7 O          20.3967   69.8674   -8.8323 O.3     1  UNL1       -0.3794
      8 O          18.7899   71.4050  -10.4103 O.3     1  UNL1       -0.3779
      9 C          20.5344   71.2841   -8.7208 C.3     1  UNL1        0.1713
     10 C          19.2795   71.9731   -9.2135 C.3     1  UNL1        0.1895
     11 C          20.5336   71.6411   -7.2406 C.3     1  UNL1        0.1764
     12 C          18.3316   71.7771   -8.0426 C.3     1  UNL1        0.2383
     13 H          20.3946   69.6151   -9.7693 H       1  UNL1        0.2105
     14 H          19.4287   71.5566  -11.1251 H       1  UNL1        0.2106
     15 O          15.9145   71.6018   -6.5923 O.2     1  UNL1       -0.2464
     16 O          14.7458   75.9298   -7.6631 O.2     1  UNL1       -0.2670
     17 N          17.3773   72.8431   -7.9258 N.ar    1  UNL1       -0.2551
     18 N          15.3343   73.7572   -7.1279 N.ar    1  UNL1       -0.2743
     19 C          16.1940   72.6519   -7.1738 C.ar    1  UNL1        0.3323
     20 C          17.6180   74.0610   -8.5500 C.ar    1  UNL1        0.0869
     21 C          16.7891   75.1055   -8.4971 C.ar    1  UNL1        0.0795
     22 C          15.5300   74.9883   -7.7326 C.ar    1  UNL1        0.2626
     23 H          14.5030   73.6474   -6.6119 H       1  UNL1        0.1734
     24 O          22.4488   74.0644   -3.9173 O.3     1  UNL1       -0.2703
     25 P          23.6690   74.5092   -2.9545 P.3     1  UNL1        0.2208
     26 O          23.4172   76.0947   -2.7468 O.co2   1  UNL1       -0.4371
     27 O          25.0300   74.1636   -3.4856 O.2     1  UNL1       -0.5170
     28 O          23.3219   73.8509   -1.5232 O.3     1  UNL1       -0.2858
     29 O          21.4676   72.4466   -1.0774 O.3     1  UNL1       -0.3226
     30 O          22.2454   74.0239    2.6609 O.3     1  UNL1       -0.3794
     31 O          22.3447   75.7232    0.2867 O.3     1  UNL1       -0.3775
     32 O          23.0163   71.2902    2.0413 O.3     1  UNL1       -0.3792
     33 C          22.5676   73.5547    1.3516 C.3     1  UNL1        0.1718
     34 C          21.8300   74.3969    0.3104 C.3     1  UNL1        0.1968
     35 C          22.1354   72.0899    1.2545 C.3     1  UNL1        0.1723
     36 C          21.9662   73.7848   -1.0845 C.3     1  UNL1        0.2706
     37 C          22.1794   71.5904   -0.1867 C.3     1  UNL1        0.1830
     38 H          22.5110   74.9531    2.7460 H       1  UNL1        0.2105
     39 H          22.2617   76.1176    1.1687 H       1  UNL1        0.2106
     40 H          22.9977   71.5979    2.9610 H       1  UNL1        0.2106
     41 O          21.8319   69.4300    0.6578 O.co2   1  UNL1       -0.5466
     42 O          20.6327   70.0314   -1.1860 O.co2   1  UNL1       -0.5466
     43 C          21.4548   70.2906   -0.3200 C.2     1  UNL1        0.0799
@<TRIPOS>UNITY_ATOM_ATTR
2 1
charge -1
26 1
charge -1
41 1
charge -1
@<TRIPOS>BOND
     1     1     4    1
     2     1    24    1
     3     1     2    1
     4     1     3    2
     5    25    28    1
     6    25    24    1
     7    25    26    1
     8    25    27    2
     9     6    11    1
    10     6    12    1
    11    29    36    1
    12    29    37    1
    13     7     9    1
    14     7    13    1
    15     8    10    1
    16     8    14    1
    17     4     5    1
    18    28    36    1
    19    30    33    1
    20    30    38    1
    21    31    34    1
    22    31    39    1
    23    32    35    1
    24    32    40    1
    25    41    43   ar
    26    15    19    2
    27    42    43   ar
    28    16    22    2
    29    17    12    1
    30    17    19   ar
    31    17    20   ar
    32    18    19   ar
    33    18    22   ar
    34    18    23    1
    35     9    10    1
    36     9    11    1
    37    10    12    1
    38    11     5    1
    39    33    34    1
    40    33    35    1
    41    34    36    1
    42    35    37    1
    43    37    43    1
    44    20    21   ar
    45    21    22   ar
@<TRIPOS>MOLECULE
*****
 43 45 0 0 0
SMALL
GASTEIGER

@<TRIPOS>ATOM
      1 P          21.8084   71.4055   -3.2695 P.3     1  UNL1        0.2189
      2 O          21.9035   72.9375   -3.7821 O.co2   1  UNL1       -0.4371
      3 O          23.1090   70.6570   -3.2653 O.2     1  UNL1       -0.5170
      4 O          20.6318   70.7646   -4.1766 O.3     1  UNL1       -0.3112
      5 C          19.7579   71.6390   -4.8667 C.3     1  UNL1        0.1811
      6 O          17.4746   72.3765   -5.0092 O.3     1  UNL1       -0.3308
      7 O          16.7327   69.6893   -3.9047 O.3     1  UNL1       -0.3794
      8 O          16.2340   69.3965   -6.5696 O.3     1  UNL1       -0.3779
      9 C          17.7827   70.0366   -4.8078 C.3     1  UNL1        0.1713
     10 C          17.2168   70.3331   -6.1804 C.3     1  UNL1        0.1895
     11 C          18.3321   71.3936   -4.3897 C.3     1  UNL1        0.1764
     12 C          16.6512   71.7306   -5.9932 C.3     1  UNL1        0.2383
     13 H          16.3658   68.8255   -4.1518 H       1  UNL1        0.2105
     14 H          16.6438   68.5232   -6.6760 H       1  UNL1        0.2106
     15 O          18.6643   71.5277   -7.9636 O.2     1  UNL1       -0.2464
     16 O          16.6611   74.7334  -10.6008 O.2     1  UNL1       -0.2670
     17 N          16.6803   72.5004   -7.2045 N.ar    1  UNL1       -0.2551
     18 N          17.6652   73.1253   -9.2747 N.ar    1  UNL1       -0.2743
     19 C          17.7368   72.3224   -8.1287 C.ar    1  UNL1        0.3323
     20 C          15.6701   73.4175   -7.4679 C.ar    1  UNL1        0.0869
     21 C          15.6154   74.1756   -8.5648 C.ar    1  UNL1        0.0795
     22 C          16.6814   74.0516   -9.5805 C.ar    1  UNL1        0.2626
     23 H          18.3909   73.0205   -9.9318 H       1  UNL1        0.1734
     24 O          21.1105   71.5509   -1.8188 O.3     1  UNL1       -0.2703
     25 P          21.6113   71.0982   -0.3498 P.3     1  UNL1        0.2208
     26 O          23.1891   71.4596   -0.3693 O.co2   1  UNL1       -0.4371
     27 O          21.3088   69.6675   -0.0098 O.2     1  UNL1       -0.5170
     28 O          20.9587   72.1777    0.6558 O.3     1  UNL1       -0.2858
     29 O          21.1397   74.5062    1.0487 O.3     1  UNL1       -0.3226
     30 O          21.1749   72.9993    4.8953 O.3     1  UNL1       -0.3794
     31 O          22.6909   71.6809    2.7745 O.3     1  UNL1       -0.3775
     32 O          18.7821   74.2778    3.8508 O.3     1  UNL1       -0.3792
     33 C          20.8190   73.0360    3.5133 C.3     1  UNL1        0.1718
     34 C          22.0835   72.9623    2.6571 C.3     1  UNL1        0.1968
     35 C          20.0745   74.3471    3.2513 C.3     1  UNL1        0.1723
     36 C          21.7641   73.2291    1.1855 C.3     1  UNL1        0.2706
     37 C          19.9056   74.6027    1.7564 C.3     1  UNL1        0.1830
     38 H          21.6494   72.1747    5.0854 H       1  UNL1        0.2105
     39 H          22.8960   71.5049    3.7058 H       1  UNL1        0.2106
     40 H          18.8754   74.1152    4.8025 H       1  UNL1        0.2106
     41 O          19.7101   76.7838    2.5967 O.co2   1  UNL1       -0.5466
     42 O          19.0022   76.4254    0.4590 O.co2   1  UNL1       -0.5466
     43 C          19.4836   76.0135    1.5039 C.2     1  UNL1        0.0799
@<TRIPOS>UNITY_ATOM_ATTR
2 1
charge -1
26 1
charge -1
41 1
charge -1
@<TRIPOS>BOND
     1     1     4    1
     2     1    24    1
     3     1     2    1
     4     1     3    2
     5    25    28    1
     6    25    24    1
     7    25    26    1
     8    25    27    2
     9     6    11    1
    10     6    12    1
    11    29    36    1
    12    29    37    1
    13     7     9    1
    14     7    13    1
    15     8    10    1
    16     8    14    1
    17     4     5    1
    18    28    36    1
    19    30    33    1
    20    30    38    1
    21    31    34    1
    22    31    39    1
    23    32    35    1
    24    32    40    1
    25    41    43   ar
    26    15    19    2
    27    42    43   ar
    28    16    22    2
    29    17    12    1
    30    17    19   ar
    31    17    20   ar
    32    18    19   ar
    33    18    22   ar
    34    18    23    1
    35     9    10    1
    36     9    11    1
    37    10    12    1
    38    11     5    1
    39    33    34    1
    40    33    35    1
    41    34    36    1
    42    35    37    1
    43    37    43    1
    44    20    21   ar
    45    21    22   ar
