@<TRIPOS>MOLECULE
*****
 43 45 0 0 0
SMALL
GASTEIGER

@<TRIPOS>ATOM
      1 P          22.9334   71.4399   -2.2581 P.3     1  UNL1        0.2189
      2 O          22.6750   73.0300   -2.4118 O.co2   1  UNL1       -0.4371
      3 O          24.1814   70.9339   -2.9200 O.2     1  UNL1       -0.5170
      4 O          21.5495   70.7708   -2.7630 O.3     1  UNL1       -0.3112
      5 C          20.9295   71.2939   -3.9234 C.3     1  UNL1        0.1811
      6 O          18.8168   71.9537   -4.8609 O.3     1  UNL1       -0.3308
      7 O          17.5571   70.5935   -2.5041 O.3     1  UNL1       -0.3794
      8 O          17.2469   68.7518   -4.4910 O.3     1  UNL1       -0.3779
      9 C          18.7227   70.2267   -3.2425 C.3     1  UNL1        0.1713
     10 C          18.3318   69.6509   -4.5870 C.3     1  UNL1        0.1895
     11 C          19.4474   71.5048   -3.6418 C.3     1  UNL1        0.1764
     12 C          17.9865   70.9015   -5.3774 C.3     1  UNL1        0.2383
     13 H          17.0774   69.7931   -2.2379 H       1  UNL1        0.2105
     14 H          17.5171   67.9726   -3.9793 H       1  UNL1        0.2106
     15 O          16.0861   69.9908   -7.2577 O.2     1  UNL1       -0.2464
     16 O          19.0831   70.3617  -10.7396 O.2     1  UNL1       -0.2670
     17 N          18.2435   70.7506   -6.7817 N.ar    1  UNL1       -0.2551
     18 N          17.5809   70.1755   -8.9899 N.ar    1  UNL1       -0.2743
     19 C          17.2199   70.2853   -7.6406 C.ar    1  UNL1        0.3323
     20 C          19.4964   71.0634   -7.2950 C.ar    1  UNL1        0.0869
     21 C          19.8255   70.9536   -8.5836 C.ar    1  UNL1        0.0795
     22 C          18.8136   70.4738   -9.5475 C.ar    1  UNL1        0.2626
     23 H          16.8854   69.8516   -9.6069 H       1  UNL1        0.1734
     24 O          22.8822   71.2170   -0.6579 O.3     1  UNL1       -0.2703
     25 P          21.6754   71.4034    0.4016 P.3     1  UNL1        0.2208
     26 O          21.5688   69.9473    1.1007 O.co2   1  UNL1       -0.4371
     27 O          20.3927   71.8931   -0.2058 O.2     1  UNL1       -0.5170
     28 O          22.2820   72.3623    1.5484 O.3     1  UNL1       -0.2858
     29 O          24.0723   71.3902    2.7564 O.3     1  UNL1       -0.3226
     30 O          23.3483   74.8208    4.9416 O.3     1  UNL1       -0.3794
     31 O          21.1285   73.2117    3.9325 O.3     1  UNL1       -0.3775
     32 O          25.6525   74.6749    3.1753 O.3     1  UNL1       -0.3792
     33 C          23.4121   74.0140    3.7656 C.3     1  UNL1        0.1718
     34 C          22.4916   72.8036    3.9247 C.3     1  UNL1        0.1968
     35 C          24.8618   73.5596    3.5819 C.3     1  UNL1        0.1723
     36 C          22.7049   71.8011    2.7897 C.3     1  UNL1        0.2706
     37 C          24.9737   72.4694    2.5201 C.3     1  UNL1        0.1830
     38 H          22.4360   75.1211    5.0787 H       1  UNL1        0.2105
     39 H          20.9861   73.8482    4.6501 H       1  UNL1        0.2106
     40 H          25.5899   75.3762    3.8425 H       1  UNL1        0.2106
     41 O          26.3249   70.6861    1.8160 O.co2   1  UNL1       -0.5466
     42 O          27.2688   72.2151    3.2197 O.co2   1  UNL1       -0.5466
     43 C          26.3119   71.8076    2.5783 C.2     1  UNL1        0.0799
@<TRIPOS>UNITY_ATOM_ATTR
2 1
charge -1
26 1
charge -1
41 1
charge -1
@<TRIPOS>BOND
     1     1     4    1
     2     1    24    1
     3     1     2    1
     4     1     3    2
     5    25    28    1
     6    25    24    1
     7    25    26    1
     8    25    27    2
     9     6    11    1
    10     6    12    1
    11    29    36    1
    12    29    37    1
    13     7     9    1
    14     7    13    1
    15     8    10    1
    16     8    14    1
    17     4     5    1
    18    28    36    1
    19    30    33    1
    20    30    38    1
    21    31    34    1
    22    31    39    1
    23    32    35    1
    24    32    40    1
    25    41    43   ar
    26    15    19    2
    27    42    43   ar
    28    16    22    2
    29    17    12    1
    30    17    19   ar
    31    17    20   ar
    32    18    19   ar
    33    18    22   ar
    34    18    23    1
    35     9    10    1
    36     9    11    1
    37    10    12    1
    38    11     5    1
    39    33    34    1
    40    33    35    1
    41    34    36    1
    42    35    37    1
    43    37    43    1
    44    20    21   ar
    45    21    22   ar
@<TRIPOS>MOLECULE
*****
 43 45 0 0 0
SMALL
GASTEIGER

@<TRIPOS>ATOM
      1 P          21.3055   71.8957   -4.6965 P.3     1  UNL1        0.2189
      2 O          20.4529   73.2645   -4.5605 O.co2   1  UNL1       -0.4371
      3 O          22.3643   71.9118   -5.7598 O.2     1  UNL1       -0.5170
      4 O          20.1755   70.7475   -4.8476 O.3     1  UNL1       -0.3112
      5 C          19.5303   70.2760   -3.6789 C.3     1  UNL1        0.1811
      6 O          17.8174   71.3425   -4.9850 O.3     1  UNL1       -0.3308
      7 O          15.8500   69.9408   -3.2085 O.3     1  UNL1       -0.3794
      8 O          15.8359   68.3914   -5.4525 O.3     1  UNL1       -0.3779
      9 C          17.1124   69.4849   -3.6955 C.3     1  UNL1        0.1713
     10 C          17.0087   69.1226   -5.1618 C.3     1  UNL1        0.1895
     11 C          18.0611   70.6753   -3.7278 C.3     1  UNL1        0.1764
     12 C          17.0259   70.4887   -5.8263 C.3     1  UNL1        0.2383
     13 H          15.2269   69.1975   -3.1790 H       1  UNL1        0.2105
     14 H          15.8733   67.5299   -5.0070 H       1  UNL1        0.2106
     15 O          15.5579   70.6753   -8.2318 O.2     1  UNL1       -0.2464
     16 O          19.3717   70.3409  -10.7985 O.2     1  UNL1       -0.2670
     17 N          17.6100   70.4531   -7.1371 N.ar    1  UNL1       -0.2551
     18 N          17.4587   70.5076   -9.5079 N.ar    1  UNL1       -0.2743
     19 C          16.7834   70.5545   -8.2811 C.ar    1  UNL1        0.3323
     20 C          18.9858   70.3210   -7.2801 C.ar    1  UNL1        0.0869
     21 C          19.6151   70.2780   -8.4561 C.ar    1  UNL1        0.0795
     22 C          18.8245   70.3766   -9.7005 C.ar    1  UNL1        0.2626
     23 H          16.9041   70.5742  -10.3187 H       1  UNL1        0.1734
     24 O          21.8611   71.6637   -3.1964 O.3     1  UNL1       -0.2703
     25 P          23.3397   71.8536   -2.5710 P.3     1  UNL1        0.2208
     26 O          23.7867   73.3114   -3.1143 O.co2   1  UNL1       -0.4371
     27 O          24.2975   70.7477   -2.9079 O.2     1  UNL1       -0.5170
     28 O          23.0917   72.0663   -0.9912 O.3     1  UNL1       -0.2858
     29 O          24.3667   71.0450    0.7236 O.3     1  UNL1       -0.3226
     30 O          20.8024   71.8094    2.6678 O.3     1  UNL1       -0.3794
     31 O          20.8068   70.7785   -0.0656 O.3     1  UNL1       -0.3775
     32 O          23.1286   73.4774    3.1757 O.3     1  UNL1       -0.3792
     33 C          21.8483   72.0423    1.7244 C.3     1  UNL1        0.1718
     34 C          21.9540   70.8501    0.7730 C.3     1  UNL1        0.1968
     35 C          23.1547   72.2209    2.5012 C.3     1  UNL1        0.1723
     36 C          23.2042   70.9572   -0.1013 C.3     1  UNL1        0.2706
     37 C          24.3642   72.1916    1.5712 C.3     1  UNL1        0.1830
     38 H          19.9622   71.6928    2.1971 H       1  UNL1        0.2105
     39 H          20.0098   70.7106    0.4827 H       1  UNL1        0.2106
     40 H          22.3632   73.5091    3.7708 H       1  UNL1        0.2106
     41 O          25.9788   70.7279    2.4385 O.co2   1  UNL1       -0.5466
     42 O          26.2679   72.9532    2.8429 O.co2   1  UNL1       -0.5466
     43 C          25.6291   72.0351    2.3509 C.2     1  UNL1        0.0799
@<TRIPOS>UNITY_ATOM_ATTR
2 1
charge -1
26 1
charge -1
41 1
charge -1
@<TRIPOS>BOND
     1     1     4    1
     2     1    24    1
     3     1     2    1
     4     1     3    2
     5    25    28    1
     6    25    24    1
     7    25    26    1
     8    25    27    2
     9     6    11    1
    10     6    12    1
    11    29    36    1
    12    29    37    1
    13     7     9    1
    14     7    13    1
    15     8    10    1
    16     8    14    1
    17     4     5    1
    18    28    36    1
    19    30    33    1
    20    30    38    1
    21    31    34    1
    22    31    39    1
    23    32    35    1
    24    32    40    1
    25    41    43   ar
    26    15    19    2
    27    42    43   ar
    28    16    22    2
    29    17    12    1
    30    17    19   ar
    31    17    20   ar
    32    18    19   ar
    33    18    22   ar
    34    18    23    1
    35     9    10    1
    36     9    11    1
    37    10    12    1
    38    11     5    1
    39    33    34    1
    40    33    35    1
    41    34    36    1
    42    35    37    1
    43    37    43    1
    44    20    21   ar
    45    21    22   ar
@<TRIPOS>MOLECULE
*****
 43 45 0 0 0
SMALL
GASTEIGER

@<TRIPOS>ATOM
      1 P          21.5151   72.7394   -5.1721 P.3     1  UNL1        0.2189
      2 O          21.6642   74.3475   -5.0686 O.co2   1  UNL1       -0.4371
      3 O          22.1698   72.1183   -6.3710 O.2     1  UNL1       -0.5170
      4 O          19.9231   72.4870   -5.0312 O.3     1  UNL1       -0.3112
      5 C          19.4445   71.8134   -3.8816 C.3     1  UNL1        0.1811
      6 O          17.5281   71.9766   -5.3232 O.3     1  UNL1       -0.3308
      7 O          16.0379   70.4665   -3.2042 O.3     1  UNL1       -0.3794
      8 O          16.5791   68.5303   -5.0466 O.3     1  UNL1       -0.3779
      9 C          17.3945   70.3284   -3.6273 C.3     1  UNL1        0.1713
     10 C          17.4562   69.6347   -4.9716 C.3     1  UNL1        0.1895
     11 C          17.9264   71.7157   -3.9599 C.3     1  UNL1        0.1764
     12 C          17.0691   70.7545   -5.9224 C.3     1  UNL1        0.2383
     13 H          15.6763   69.5927   -2.9861 H       1  UNL1        0.2105
     14 H          16.8682   67.8450   -4.4231 H       1  UNL1        0.2106
     15 O          15.6429   70.7046   -8.3596 O.2     1  UNL1       -0.2464
     16 O          19.5068   70.1989  -10.8210 O.2     1  UNL1       -0.2670
     17 N          17.6773   70.6109   -7.2148 N.ar    1  UNL1       -0.2551
     18 N          17.5686   70.4517   -9.5831 N.ar    1  UNL1       -0.2743
     19 C          16.8706   70.5978   -8.3771 C.ar    1  UNL1        0.3323
     20 C          19.0572   70.4868   -7.3219 C.ar    1  UNL1        0.0869
     21 C          19.7083   70.3484   -8.4786 C.ar    1  UNL1        0.0795
     22 C          18.9392   70.3242   -9.7401 C.ar    1  UNL1        0.2626
     23 H          17.0281   70.4377  -10.4059 H       1  UNL1        0.1734
     24 O          22.0911   72.2293   -3.7505 O.3     1  UNL1       -0.2703
     25 P          23.6033   72.1525   -3.1839 P.3     1  UNL1        0.2208
     26 O          24.4338   73.0786   -4.2197 O.co2   1  UNL1       -0.4371
     27 O          24.1362   70.7565   -3.0383 O.2     1  UNL1       -0.5170
     28 O          23.5705   73.0029   -1.8134 O.3     1  UNL1       -0.2858
     29 O          21.7388   72.6245   -0.3606 O.3     1  UNL1       -0.3226
     30 O          23.3691   76.0745    1.2230 O.3     1  UNL1       -0.3794
     31 O          23.1243   75.7445   -1.6694 O.3     1  UNL1       -0.3775
     32 O          23.7845   73.5217    2.5502 O.3     1  UNL1       -0.3792
     33 C          23.3853   74.8128    0.5555 C.3     1  UNL1        0.1718
     34 C          22.5226   74.8892   -0.7044 C.3     1  UNL1        0.1968
     35 C          22.8293   73.7612    1.5183 C.3     1  UNL1        0.1723
     36 C          22.3290   73.5026   -1.3198 C.3     1  UNL1        0.2706
     37 C          22.5452   72.4444    0.8015 C.3     1  UNL1        0.1830
     38 H          23.7182   76.7587    0.6302 H       1  UNL1        0.2105
     39 H          23.2504   76.6260   -1.2855 H       1  UNL1        0.2106
     40 H          23.9743   74.3521    3.0142 H       1  UNL1        0.2106
     41 O          21.5457   70.3382    1.0595 O.co2   1  UNL1       -0.5466
     42 O          21.2366   71.8490    2.7391 O.co2   1  UNL1       -0.5466
     43 C          21.7093   71.5461    1.6539 C.2     1  UNL1        0.0799
@<TRIPOS>UNITY_ATOM_ATTR
2 1
charge -1
26 1
charge -1
41 1
charge -1
@<TRIPOS>BOND
     1     1     4    1
     2     1    24    1
     3     1     2    1
     4     1     3    2
     5    25    28    1
     6    25    24    1
     7    25    26    1
     8    25    27    2
     9     6    11    1
    10     6    12    1
    11    29    36    1
    12    29    37    1
    13     7     9    1
    14     7    13    1
    15     8    10    1
    16     8    14    1
    17     4     5    1
    18    28    36    1
    19    30    33    1
    20    30    38    1
    21    31    34    1
    22    31    39    1
    23    32    35    1
    24    32    40    1
    25    41    43   ar
    26    15    19    2
    27    42    43   ar
    28    16    22    2
    29    17    12    1
    30    17    19   ar
    31    17    20   ar
    32    18    19   ar
    33    18    22   ar
    34    18    23    1
    35     9    10    1
    36     9    11    1
    37    10    12    1
    38    11     5    1
    39    33    34    1
    40    33    35    1
    41    34    36    1
    42    35    37    1
    43    37    43    1
    44    20    21   ar
    45    21    22   ar
@<TRIPOS>MOLECULE
*****
 43 45 0 0 0
SMALL
GASTEIGER

@<TRIPOS>ATOM
      1 P          22.0011   71.5482   -2.3857 P.3     1  UNL1        0.2189
      2 O          21.5217   72.8683   -3.1897 O.co2   1  UNL1       -0.4371
      3 O          23.2748   70.9307   -2.8838 O.2     1  UNL1       -0.5170
      4 O          20.6996   70.5871   -2.4056 O.3     1  UNL1       -0.3112
      5 C          20.0516   70.3521   -3.6423 C.3     1  UNL1        0.1811
      6 O          18.3372   71.5698   -4.8065 O.3     1  UNL1       -0.3308
      7 O          16.4130   70.3716   -2.8435 O.3     1  UNL1       -0.3794
      8 O          16.0520   68.8184   -5.0556 O.3     1  UNL1       -0.3779
      9 C          17.5780   69.7949   -3.4339 C.3     1  UNL1        0.1713
     10 C          17.3099   69.4361   -4.8801 C.3     1  UNL1        0.1895
     11 C          18.6282   70.8893   -3.5666 C.3     1  UNL1        0.1764
     12 C          17.3965   70.7907   -5.5624 C.3     1  UNL1        0.2383
     13 H          15.7276   69.6912   -2.7486 H       1  UNL1        0.2105
     14 H          16.0476   67.9597   -4.6033 H       1  UNL1        0.2106
     15 O          15.7254   70.2576   -7.7760 O.2     1  UNL1       -0.2464
     16 O          19.2648   70.4365  -10.7230 O.2     1  UNL1       -0.2670
     17 N          17.8550   70.6925   -6.9192 N.ar    1  UNL1       -0.2551
     18 N          17.4900   70.3462   -9.2415 N.ar    1  UNL1       -0.2743
     19 C          16.9334   70.4210   -7.9579 C.ar    1  UNL1        0.3323
     20 C          19.2027   70.8660   -7.2101 C.ar    1  UNL1        0.0869
     21 C          19.7184   70.7919   -8.4387 C.ar    1  UNL1        0.0795
     22 C          18.8233   70.5108   -9.5802 C.ar    1  UNL1        0.2626
     23 H          16.8682   70.1561   -9.9808 H       1  UNL1        0.1734
     24 O          22.0540   72.0565   -0.8522 O.3     1  UNL1       -0.2703
     25 P          22.4845   71.2914    0.5054 P.3     1  UNL1        0.2208
     26 O          23.9956   70.8031    0.1915 O.co2   1  UNL1       -0.4371
     27 O          21.5506   70.1890    0.9135 O.2     1  UNL1       -0.5170
     28 O          22.6546   72.4642    1.5999 O.3     1  UNL1       -0.2858
     29 O          21.9845   72.8394    3.8403 O.3     1  UNL1       -0.3226
     30 O          21.2030   76.5058    2.1038 O.3     1  UNL1       -0.3794
     31 O          20.5399   74.0310    0.7002 O.3     1  UNL1       -0.3775
     32 O          23.5323   76.1659    3.8096 O.3     1  UNL1       -0.3792
     33 C          21.8957   75.2707    2.2848 C.3     1  UNL1        0.1718
     34 C          20.9301   74.1056    2.0666 C.3     1  UNL1        0.1968
     35 C          22.4489   75.2434    3.7114 C.3     1  UNL1        0.1723
     36 C          21.5724   72.7790    2.4743 C.3     1  UNL1        0.2706
     37 C          22.9561   73.8538    4.0857 C.3     1  UNL1        0.1830
     38 H          20.8425   76.5457    1.2040 H       1  UNL1        0.2105
     39 H          20.1318   74.8696    0.4347 H       1  UNL1        0.2106
     40 H          23.2229   77.0544    3.5737 H       1  UNL1        0.2106
     41 O          24.2895   74.4467    5.9221 O.co2   1  UNL1       -0.5466
     42 O          22.4745   73.1302    6.3365 O.co2   1  UNL1       -0.5466
     43 C          23.1835   73.7511    5.5588 C.2     1  UNL1        0.0799
@<TRIPOS>UNITY_ATOM_ATTR
2 1
charge -1
26 1
charge -1
41 1
charge -1
@<TRIPOS>BOND
     1     1     4    1
     2     1    24    1
     3     1     2    1
     4     1     3    2
     5    25    28    1
     6    25    24    1
     7    25    26    1
     8    25    27    2
     9     6    11    1
    10     6    12    1
    11    29    36    1
    12    29    37    1
    13     7     9    1
    14     7    13    1
    15     8    10    1
    16     8    14    1
    17     4     5    1
    18    28    36    1
    19    30    33    1
    20    30    38    1
    21    31    34    1
    22    31    39    1
    23    32    35    1
    24    32    40    1
    25    41    43   ar
    26    15    19    2
    27    42    43   ar
    28    16    22    2
    29    17    12    1
    30    17    19   ar
    31    17    20   ar
    32    18    19   ar
    33    18    22   ar
    34    18    23    1
    35     9    10    1
    36     9    11    1
    37    10    12    1
    38    11     5    1
    39    33    34    1
    40    33    35    1
    41    34    36    1
    42    35    37    1
    43    37    43    1
    44    20    21   ar
    45    21    22   ar
@<TRIPOS>MOLECULE
*****
 43 45 0 0 0
SMALL
GASTEIGER

@<TRIPOS>ATOM
      1 P          23.4935   73.5757   -4.1729 P.3     1  UNL1        0.2189
      2 O          22.7272   74.9817   -4.4066 O.co2   1  UNL1       -0.4371
      3 O          24.9862   73.6789   -4.0589 O.2     1  UNL1       -0.5170
      4 O          22.9437   72.6307   -5.3657 O.3     1  UNL1       -0.3112
      5 C          21.5610   72.3290   -5.4065 C.3     1  UNL1        0.1811
      6 O          20.5029   70.3604   -6.2912 O.3     1  UNL1       -0.3308
      7 O          20.6354   71.7160   -8.9626 O.3     1  UNL1       -0.3794
      8 O          18.0419   72.1145   -8.2201 O.3     1  UNL1       -0.3779
      9 C          20.4050   72.2823   -7.6723 C.3     1  UNL1        0.1713
     10 C          19.0045   71.9554   -7.1990 C.3     1  UNL1        0.1895
     11 C          21.2651   71.5278   -6.6678 C.3     1  UNL1        0.1764
     12 C          19.1513   70.5104   -6.7537 C.3     1  UNL1        0.2383
     13 H          20.0965   72.1819   -9.6215 H       1  UNL1        0.2105
     14 H          17.9857   73.0511   -8.4684 H       1  UNL1        0.2106
     15 O          16.4454   69.7877   -7.1171 O.2     1  UNL1       -0.2464
     16 O          15.7961   69.2311   -2.5880 O.2     1  UNL1       -0.2670
     17 N          18.2524   70.1717   -5.6869 N.ar    1  UNL1       -0.2551
     18 N          16.1243   69.5121   -4.8609 N.ar    1  UNL1       -0.2743
     19 C          16.9122   69.8231   -5.9770 C.ar    1  UNL1        0.3323
     20 C          18.7007   70.1853   -4.3716 C.ar    1  UNL1        0.0869
     21 C          17.9379   69.8864   -3.3182 C.ar    1  UNL1        0.0795
     22 C          16.5249   69.5123   -3.5346 C.ar    1  UNL1        0.2626
     23 H          15.1870   69.2683   -5.0376 H       1  UNL1        0.1734
     24 O          22.7582   72.9746   -2.8649 O.3     1  UNL1       -0.2703
     25 P          22.8698   71.5259   -2.1562 P.3     1  UNL1        0.2208
     26 O          24.2082   70.8950   -2.8128 O.co2   1  UNL1       -0.4371
     27 O          21.6450   70.6708   -2.3065 O.2     1  UNL1       -0.5170
     28 O          23.2783   71.8477   -0.6291 O.3     1  UNL1       -0.2858
     29 O          24.6322   70.8455    1.0358 O.3     1  UNL1       -0.3226
     30 O          21.2812   71.9094    3.2054 O.3     1  UNL1       -0.3794
     31 O          21.0112   70.7406    0.5417 O.3     1  UNL1       -0.3775
     32 O          23.7248   73.4670    3.4372 O.3     1  UNL1       -0.3792
     33 C          22.2584   72.0338    2.1721 C.3     1  UNL1        0.1718
     34 C          22.2245   70.7903    1.2834 C.3     1  UNL1        0.1968
     35 C          23.6307   72.1780    2.8338 C.3     1  UNL1        0.1723
     36 C          23.4040   70.7813    0.3099 C.3     1  UNL1        0.2706
     37 C          24.7581   72.0325    1.8158 C.3     1  UNL1        0.1830
     38 H          20.4008   71.8165    2.8086 H       1  UNL1        0.2105
     39 H          20.2586   70.7463    1.1531 H       1  UNL1        0.2106
     40 H          23.0127   73.5725    4.0873 H       1  UNL1        0.2106
     41 O          26.4696   72.9968    3.0973 O.co2   1  UNL1       -0.5466
     42 O          26.7057   70.8008    2.5307 O.co2   1  UNL1       -0.5466
     43 C          26.0718   71.8450    2.5023 C.2     1  UNL1        0.0799
@<TRIPOS>UNITY_ATOM_ATTR
2 1
charge -1
26 1
charge -1
41 1
charge -1
@<TRIPOS>BOND
     1     1     4    1
     2     1    24    1
     3     1     2    1
     4     1     3    2
     5    25    28    1
     6    25    24    1
     7    25    26    1
     8    25    27    2
     9     6    11    1
    10     6    12    1
    11    29    36    1
    12    29    37    1
    13     7     9    1
    14     7    13    1
    15     8    10    1
    16     8    14    1
    17     4     5    1
    18    28    36    1
    19    30    33    1
    20    30    38    1
    21    31    34    1
    22    31    39    1
    23    32    35    1
    24    32    40    1
    25    41    43   ar
    26    15    19    2
    27    42    43   ar
    28    16    22    2
    29    17    12    1
    30    17    19   ar
    31    17    20   ar
    32    18    19   ar
    33    18    22   ar
    34    18    23    1
    35     9    10    1
    36     9    11    1
    37    10    12    1
    38    11     5    1
    39    33    34    1
    40    33    35    1
    41    34    36    1
    42    35    37    1
    43    37    43    1
    44    20    21   ar
    45    21    22   ar
@<TRIPOS>MOLECULE
*****
 43 45 0 0 0
SMALL
GASTEIGER

@<TRIPOS>ATOM
      1 P          21.9402   71.6128   -2.1923 P.3     1  UNL1        0.2189
      2 O          21.5653   72.9592   -3.0080 O.co2   1  UNL1       -0.4371
      3 O          23.2746   71.0167   -2.5325 O.2     1  UNL1       -0.5170
      4 O          20.6609   70.6496   -2.4235 O.3     1  UNL1       -0.3112
      5 C          20.0927   70.5793   -3.7184 C.3     1  UNL1        0.1811
      6 O          18.3332   71.6969   -4.9154 O.3     1  UNL1       -0.3308
      7 O          16.4577   70.4970   -2.9069 O.3     1  UNL1       -0.3794
      8 O          16.1461   68.8599   -5.0654 O.3     1  UNL1       -0.3779
      9 C          17.6409   69.9425   -3.4824 C.3     1  UNL1        0.1713
     10 C          17.3818   69.5270   -4.9150 C.3     1  UNL1        0.1895
     11 C          18.6514   71.0683   -3.6549 C.3     1  UNL1        0.1764
     12 C          17.4187   70.8606   -5.6418 C.3     1  UNL1        0.2383
     13 H          15.7971   69.7963   -2.7870 H       1  UNL1        0.2105
     14 H          16.1732   68.0170   -4.5850 H       1  UNL1        0.2106
     15 O          15.7359   70.3613   -7.8544 O.2     1  UNL1       -0.2464
     16 O          19.2860   70.3940  -10.7937 O.2     1  UNL1       -0.2670
     17 N          17.8768   70.7340   -6.9963 N.ar    1  UNL1       -0.2551
     18 N          17.5058   70.3771   -9.3161 N.ar    1  UNL1       -0.2743
     19 C          16.9490   70.4829   -8.0347 C.ar    1  UNL1        0.3323
     20 C          19.2302   70.8599   -7.2854 C.ar    1  UNL1        0.0869
     21 C          19.7459   70.7567   -8.5118 C.ar    1  UNL1        0.0795
     22 C          18.8446   70.4941   -9.6529 C.ar    1  UNL1        0.2626
     23 H          16.8797   70.2004  -10.0551 H       1  UNL1        0.1734
     24 O          21.7792   72.0666   -0.6492 O.3     1  UNL1       -0.2703
     25 P          22.1359   71.2960    0.7265 P.3     1  UNL1        0.2208
     26 O          23.7521   71.3677    0.7823 O.co2   1  UNL1       -0.4371
     27 O          21.5750   69.9063    0.8172 O.2     1  UNL1       -0.5170
     28 O          21.6435   72.2942    1.8943 O.3     1  UNL1       -0.2858
     29 O          21.8697   74.6013    2.3796 O.3     1  UNL1       -0.3226
     30 O          22.4702   72.8978    6.0951 O.3     1  UNL1       -0.3794
     31 O          23.6674   71.7091    3.7101 O.3     1  UNL1       -0.3775
     32 O          19.9455   74.1999    5.4777 O.3     1  UNL1       -0.3792
     33 C          21.9170   73.0017    4.7832 C.3     1  UNL1        0.1718
     34 C          23.0439   72.9875    3.7500 C.3     1  UNL1        0.1968
     35 C          21.1367   74.3156    4.7017 C.3     1  UNL1        0.1723
     36 C          22.5128   73.3264    2.3565 C.3     1  UNL1        0.2706
     37 C          20.7512   74.6463    3.2628 C.3     1  UNL1        0.1830
     38 H          22.9709   72.0701    6.1705 H       1  UNL1        0.2105
     39 H          24.0065   71.4876    4.5912 H       1  UNL1        0.2106
     40 H          20.1769   73.9894    6.3959 H       1  UNL1        0.2106
     41 O          19.1657   76.2609    3.8799 O.co2   1  UNL1       -0.5466
     42 O          20.8468   76.9308    2.4927 O.co2   1  UNL1       -0.5466
     43 C          20.2908   76.0631    3.1492 C.2     1  UNL1        0.0799
@<TRIPOS>UNITY_ATOM_ATTR
2 1
charge -1
26 1
charge -1
41 1
charge -1
@<TRIPOS>BOND
     1     1     4    1
     2     1    24    1
     3     1     2    1
     4     1     3    2
     5    25    28    1
     6    25    24    1
     7    25    26    1
     8    25    27    2
     9     6    11    1
    10     6    12    1
    11    29    36    1
    12    29    37    1
    13     7     9    1
    14     7    13    1
    15     8    10    1
    16     8    14    1
    17     4     5    1
    18    28    36    1
    19    30    33    1
    20    30    38    1
    21    31    34    1
    22    31    39    1
    23    32    35    1
    24    32    40    1
    25    41    43   ar
    26    15    19    2
    27    42    43   ar
    28    16    22    2
    29    17    12    1
    30    17    19   ar
    31    17    20   ar
    32    18    19   ar
    33    18    22   ar
    34    18    23    1
    35     9    10    1
    36     9    11    1
    37    10    12    1
    38    11     5    1
    39    33    34    1
    40    33    35    1
    41    34    36    1
    42    35    37    1
    43    37    43    1
    44    20    21   ar
    45    21    22   ar
@<TRIPOS>MOLECULE
*****
 43 45 0 0 0
SMALL
GASTEIGER

@<TRIPOS>ATOM
      1 P          22.7202   73.2085   -3.9840 P.3     1  UNL1        0.2189
      2 O          24.2354   72.7091   -4.2551 O.co2   1  UNL1       -0.4371
      3 O          22.5643   74.6898   -3.8023 O.2     1  UNL1       -0.5170
      4 O          22.2250   72.2927   -2.7455 O.3     1  UNL1       -0.3112
      5 C          21.3423   71.2178   -3.0099 C.3     1  UNL1        0.1811
      6 O          20.6451   70.6082   -0.7918 O.3     1  UNL1       -0.3308
      7 O          18.4520   72.6254   -1.1275 O.3     1  UNL1       -0.3794
      8 O          20.2683   73.9687    0.3997 O.3     1  UNL1       -0.3779
      9 C          19.7987   72.6676   -1.6000 C.3     1  UNL1        0.1713
     10 C          20.7473   72.9512   -0.4546 C.3     1  UNL1        0.1895
     11 C          20.1995   71.2552   -2.0034 C.3     1  UNL1        0.1764
     12 C          20.8248   71.5987    0.2329 C.3     1  UNL1        0.2383
     13 H          18.1734   73.5167   -0.8638 H       1  UNL1        0.2105
     14 H          20.2378   74.8094   -0.0842 H       1  UNL1        0.2106
     15 O          21.2946   71.9594    2.9944 O.2     1  UNL1       -0.2464
     16 O          25.7203   70.7382    2.5869 O.2     1  UNL1       -0.2670
     17 N          22.0904   71.3821    0.8750 N.ar    1  UNL1       -0.2551
     18 N          23.4987   71.3518    2.7886 N.ar    1  UNL1       -0.2743
     19 C          22.2202   71.5921    2.2682 C.ar    1  UNL1        0.3323
     20 C          23.1850   70.9650    0.1274 C.ar    1  UNL1        0.0869
     21 C          24.3973   70.7399    0.6376 C.ar    1  UNL1        0.0795
     22 C          24.6179   70.9368    2.0853 C.ar    1  UNL1        0.2626
     23 H          23.6141   71.4932    3.7561 H       1  UNL1        0.1734
     24 O          21.9059   72.5946   -5.2382 O.3     1  UNL1       -0.2703
     25 P          21.0763   73.3185   -6.4220 P.3     1  UNL1        0.2208
     26 O          21.9605   73.0017   -7.7404 O.co2   1  UNL1       -0.4371
     27 O          20.8163   74.7785   -6.1879 O.2     1  UNL1       -0.5170
     28 O          19.7471   72.4215   -6.5980 O.3     1  UNL1       -0.2858
     29 O          19.1407   70.2762   -5.7985 O.3     1  UNL1       -0.3226
     30 O          17.4167   70.2924   -9.5529 O.3     1  UNL1       -0.3794
     31 O          20.1000   71.3753   -9.1508 O.3     1  UNL1       -0.3775
     32 O          15.7648   70.6466   -7.1871 O.3     1  UNL1       -0.3792
     33 C          17.8762   70.8626   -8.3274 C.3     1  UNL1        0.1718
     34 C          19.3791   70.6218   -8.1828 C.3     1  UNL1        0.1968
     35 C          17.1170   70.1926   -7.1800 C.3     1  UNL1        0.1723
     36 C          19.8637   71.0123   -6.7858 C.3     1  UNL1        0.2706
     37 C          17.7382   70.5314   -5.8281 C.3     1  UNL1        0.1830
     38 H          17.8855   70.7029  -10.2965 H       1  UNL1        0.2105
     39 H          19.7974   71.1328  -10.0396 H       1  UNL1        0.2106
     40 H          15.3579   70.4372   -8.0424 H       1  UNL1        0.2106
     41 O          16.6172   68.5383   -5.3061 O.co2   1  UNL1       -0.5466
     42 O          17.2989   69.8362   -3.5598 O.co2   1  UNL1       -0.5466
     43 C          17.2104   69.6290   -4.7607 C.2     1  UNL1        0.0799
@<TRIPOS>UNITY_ATOM_ATTR
2 1
charge -1
26 1
charge -1
41 1
charge -1
@<TRIPOS>BOND
     1     1     4    1
     2     1    24    1
     3     1     2    1
     4     1     3    2
     5    25    28    1
     6    25    24    1
     7    25    26    1
     8    25    27    2
     9     6    11    1
    10     6    12    1
    11    29    36    1
    12    29    37    1
    13     7     9    1
    14     7    13    1
    15     8    10    1
    16     8    14    1
    17     4     5    1
    18    28    36    1
    19    30    33    1
    20    30    38    1
    21    31    34    1
    22    31    39    1
    23    32    35    1
    24    32    40    1
    25    41    43   ar
    26    15    19    2
    27    42    43   ar
    28    16    22    2
    29    17    12    1
    30    17    19   ar
    31    17    20   ar
    32    18    19   ar
    33    18    22   ar
    34    18    23    1
    35     9    10    1
    36     9    11    1
    37    10    12    1
    38    11     5    1
    39    33    34    1
    40    33    35    1
    41    34    36    1
    42    35    37    1
    43    37    43    1
    44    20    21   ar
    45    21    22   ar
@<TRIPOS>MOLECULE
*****
 43 45 0 0 0
SMALL
GASTEIGER

@<TRIPOS>ATOM
      1 P          23.1895   71.9301   -2.8635 P.3     1  UNL1        0.2189
      2 O          23.7231   73.3935   -3.3022 O.co2   1  UNL1       -0.4371
      3 O          24.1555   70.8064   -3.0997 O.2     1  UNL1       -0.5170
      4 O          21.7608   71.7973   -3.6113 O.3     1  UNL1       -0.3112
      5 C          21.4619   72.6969   -4.6629 C.3     1  UNL1        0.1811
      6 O          20.6292   70.7062   -5.7218 O.3     1  UNL1       -0.3308
      7 O          21.0310   72.1448   -8.3218 O.3     1  UNL1       -0.3794
      8 O          18.3468   72.3948   -7.9112 O.3     1  UNL1       -0.3779
      9 C          20.6087   72.6609   -7.0594 C.3     1  UNL1        0.1713
     10 C          19.1781   72.2526   -6.7783 C.3     1  UNL1        0.1895
     11 C          21.3715   71.9197   -5.9699 C.3     1  UNL1        0.1764
     12 C          19.3417   70.8039   -6.3512 C.3     1  UNL1        0.2383
     13 H          20.5571   72.6032   -9.0338 H       1  UNL1        0.2105
     14 H          18.2742   73.3345   -8.1430 H       1  UNL1        0.2106
     15 O          16.8305   69.7391   -7.0837 O.2     1  UNL1       -0.2464
     16 O          15.5487   69.2523   -2.6833 O.2     1  UNL1       -0.2670
     17 N          18.3328   70.3907   -5.4173 N.ar    1  UNL1       -0.2551
     18 N          16.1941   69.4986   -4.8914 N.ar    1  UNL1       -0.2743
     19 C          17.1052   69.8690   -5.8893 C.ar    1  UNL1        0.3323
     20 C          18.5643   70.5023   -4.0517 C.ar    1  UNL1        0.0869
     21 C          17.6863   70.1449   -3.1124 C.ar    1  UNL1        0.0795
     22 C          16.3788   69.5913   -3.5214 C.ar    1  UNL1        0.2626
     23 H          15.3315   69.1346   -5.1957 H       1  UNL1        0.1734
     24 O          22.7715   72.1448   -1.3169 O.3     1  UNL1       -0.2703
     25 P          21.3324   72.0616   -0.5849 P.3     1  UNL1        0.2208
     26 O          20.8345   70.5578   -0.9180 O.co2   1  UNL1       -0.4371
     27 O          20.3692   73.1372   -0.9961 O.2     1  UNL1       -0.5170
     28 O          21.6757   72.0370    0.9912 O.3     1  UNL1       -0.2858
     29 O          22.1655   74.2660    1.6245 O.3     1  UNL1       -0.3226
     30 O          22.5524   72.2664    5.2190 O.3     1  UNL1       -0.3794
     31 O          23.6123   71.1051    2.7568 O.3     1  UNL1       -0.3775
     32 O          20.1973   73.8890    4.6980 O.3     1  UNL1       -0.3792
     33 C          22.0194   72.5187    3.9189 C.3     1  UNL1        0.1718
     34 C          23.1406   72.4416    2.8823 C.3     1  UNL1        0.1968
     35 C          21.3965   73.9165    3.9262 C.3     1  UNL1        0.1723
     36 C          22.6570   72.9295    1.5160 C.3     1  UNL1        0.2706
     37 C          21.0567   74.3824    2.5134 C.3     1  UNL1        0.1830
     38 H          22.9538   71.3833    5.2383 H       1  UNL1        0.2105
     39 H          23.9205   70.7890    3.6202 H       1  UNL1        0.2106
     40 H          20.3997   73.5939    5.5996 H       1  UNL1        0.2106
     41 O          21.3658   76.4420    1.4345 O.co2   1  UNL1       -0.5466
     42 O          20.0753   76.4359    3.3143 O.co2   1  UNL1       -0.5466
     43 C          20.7636   75.8473    2.4941 C.2     1  UNL1        0.0799
@<TRIPOS>UNITY_ATOM_ATTR
2 1
charge -1
26 1
charge -1
41 1
charge -1
@<TRIPOS>BOND
     1     1     4    1
     2     1    24    1
     3     1     2    1
     4     1     3    2
     5    25    28    1
     6    25    24    1
     7    25    26    1
     8    25    27    2
     9     6    11    1
    10     6    12    1
    11    29    36    1
    12    29    37    1
    13     7     9    1
    14     7    13    1
    15     8    10    1
    16     8    14    1
    17     4     5    1
    18    28    36    1
    19    30    33    1
    20    30    38    1
    21    31    34    1
    22    31    39    1
    23    32    35    1
    24    32    40    1
    25    41    43   ar
    26    15    19    2
    27    42    43   ar
    28    16    22    2
    29    17    12    1
    30    17    19   ar
    31    17    20   ar
    32    18    19   ar
    33    18    22   ar
    34    18    23    1
    35     9    10    1
    36     9    11    1
    37    10    12    1
    38    11     5    1
    39    33    34    1
    40    33    35    1
    41    34    36    1
    42    35    37    1
    43    37    43    1
    44    20    21   ar
    45    21    22   ar
@<TRIPOS>MOLECULE
*****
 43 45 0 0 0
SMALL
GASTEIGER

@<TRIPOS>ATOM
      1 P          20.8894   72.6945   -4.1913 P.3     1  UNL1        0.2189
      2 O          19.8638   73.9076   -4.4998 O.co2   1  UNL1       -0.4371
      3 O          21.4061   71.9776   -5.4041 O.2     1  UNL1       -0.5170
      4 O          20.0965   71.7787   -3.1185 O.3     1  UNL1       -0.3112
      5 C          19.4174   70.6269   -3.5840 C.3     1  UNL1        0.1811
      6 O          17.6668   71.5346   -4.9583 O.3     1  UNL1       -0.3308
      7 O          15.7567   70.0795   -3.1622 O.3     1  UNL1       -0.3794
      8 O          15.8812   68.4498   -5.3450 O.3     1  UNL1       -0.3779
      9 C          17.0539   69.6858   -3.6103 C.3     1  UNL1        0.1713
     10 C          17.0007   69.2633   -5.0633 C.3     1  UNL1        0.1895
     11 C          17.9275   70.9313   -3.6725 C.3     1  UNL1        0.1764
     12 C          16.9457   70.6021   -5.7792 C.3     1  UNL1        0.2383
     13 H          15.1805   69.3002   -3.1145 H       1  UNL1        0.2105
     14 H          15.9635   67.6095   -4.8663 H       1  UNL1        0.2106
     15 O          15.5173   70.6593   -8.2149 O.2     1  UNL1       -0.2464
     16 O          19.3898   70.4140  -10.7024 O.2     1  UNL1       -0.2670
     17 N          17.5556   70.5545   -7.0779 N.ar    1  UNL1       -0.2551
     18 N          17.4474   70.5360   -9.4515 N.ar    1  UNL1       -0.2743
     19 C          16.7475   70.5888   -8.2389 C.ar    1  UNL1        0.3323
     20 C          18.9383   70.4765   -7.1924 C.ar    1  UNL1        0.0869
     21 C          19.5910   70.4270   -8.3552 C.ar    1  UNL1        0.0795
     22 C          18.8208   70.4573   -9.6159 C.ar    1  UNL1        0.2626
     23 H          16.9060   70.5565  -10.2736 H       1  UNL1        0.1734
     24 O          22.0298   73.4034   -3.2913 O.3     1  UNL1       -0.2703
     25 P          23.3922   72.8163   -2.6488 P.3     1  UNL1        0.2208
     26 O          24.3522   74.1170   -2.5654 O.co2   1  UNL1       -0.4371
     27 O          23.9812   71.6604   -3.4043 O.2     1  UNL1       -0.5170
     28 O          23.0139   72.4904   -1.1147 O.3     1  UNL1       -0.2858
     29 O          22.8266   74.2646    0.4430 O.3     1  UNL1       -0.3226
     30 O          23.1634   70.9882    2.9369 O.3     1  UNL1       -0.3794
     31 O          24.8368   71.2127    0.5528 O.3     1  UNL1       -0.3775
     32 O          20.5807   72.2633    2.5436 O.3     1  UNL1       -0.3792
     33 C          22.7843   71.6922    1.7543 C.3     1  UNL1        0.1718
     34 C          24.0305   72.2619    1.0762 C.3     1  UNL1        0.1968
     35 C          21.8357   72.8223    2.1603 C.3     1  UNL1        0.1723
     36 C          23.6492   73.2113   -0.0605 C.3     1  UNL1        0.2706
     37 C          21.6044   73.7963    1.0087 C.3     1  UNL1        0.1830
     38 H          23.7666   70.2650    2.7036 H       1  UNL1        0.2105
     39 H          25.0822   70.6063    1.2687 H       1  UNL1        0.2106
     40 H          20.7139   71.6413    3.2759 H       1  UNL1        0.2106
     41 O          19.8286   75.3136    0.7943 O.co2   1  UNL1       -0.5466
     42 O          21.3812   75.7506    2.4059 O.co2   1  UNL1       -0.5466
     43 C          20.9582   75.0517    1.4973 C.2     1  UNL1        0.0799
@<TRIPOS>UNITY_ATOM_ATTR
2 1
charge -1
26 1
charge -1
41 1
charge -1
@<TRIPOS>BOND
     1     1     4    1
     2     1    24    1
     3     1     2    1
     4     1     3    2
     5    25    28    1
     6    25    24    1
     7    25    26    1
     8    25    27    2
     9     6    11    1
    10     6    12    1
    11    29    36    1
    12    29    37    1
    13     7     9    1
    14     7    13    1
    15     8    10    1
    16     8    14    1
    17     4     5    1
    18    28    36    1
    19    30    33    1
    20    30    38    1
    21    31    34    1
    22    31    39    1
    23    32    35    1
    24    32    40    1
    25    41    43   ar
    26    15    19    2
    27    42    43   ar
    28    16    22    2
    29    17    12    1
    30    17    19   ar
    31    17    20   ar
    32    18    19   ar
    33    18    22   ar
    34    18    23    1
    35     9    10    1
    36     9    11    1
    37    10    12    1
    38    11     5    1
    39    33    34    1
    40    33    35    1
    41    34    36    1
    42    35    37    1
    43    37    43    1
    44    20    21   ar
    45    21    22   ar
@<TRIPOS>MOLECULE
*****
 43 45 0 0 0
SMALL
GASTEIGER

@<TRIPOS>ATOM
      1 P          23.3281   73.6619   -3.9777 P.3     1  UNL1        0.2189
      2 O          24.1631   72.2973   -4.2219 O.co2   1  UNL1       -0.4371
      3 O          23.7894   74.8399   -4.7848 O.2     1  UNL1       -0.5170
      4 O          23.3601   73.8548   -2.3716 O.3     1  UNL1       -0.3112
      5 C          22.1575   73.6786   -1.6454 C.3     1  UNL1        0.1811
      6 O          23.2627   71.7671   -0.6955 O.3     1  UNL1       -0.3308
      7 O          20.5250   70.6009   -0.3261 O.3     1  UNL1       -0.3794
      8 O          21.1277   71.5099    2.1733 O.3     1  UNL1       -0.3779
      9 C          20.9522   71.9583   -0.2101 C.3     1  UNL1        0.1713
     10 C          21.7332   72.1543    1.0720 C.3     1  UNL1        0.1895
     11 C          22.0144   72.2088   -1.2717 C.3     1  UNL1        0.1764
     12 C          23.0828   71.5557    0.7138 C.3     1  UNL1        0.2383
     13 H          19.8459   70.4170    0.3424 H       1  UNL1        0.2105
     14 H          20.2720   71.9273    2.3617 H       1  UNL1        0.2106
     15 O          24.9447   70.1715    2.3244 O.2     1  UNL1       -0.2464
     16 O          27.1919   74.0543    3.3821 O.2     1  UNL1       -0.2670
     17 N          24.1644   72.1802    1.4215 N.ar    1  UNL1       -0.2551
     18 N          26.0615   72.1068    2.8505 N.ar    1  UNL1       -0.2743
     19 C          25.0436   71.3940    2.2033 C.ar    1  UNL1        0.3323
     20 C          24.3471   73.5550    1.3361 C.ar    1  UNL1        0.0869
     21 C          25.3221   74.2203    1.9586 C.ar    1  UNL1        0.0795
     22 C          26.2832   73.4734    2.7964 C.ar    1  UNL1        0.2626
     23 H          26.6849   71.5812    3.4023 H       1  UNL1        0.1734
     24 O          21.8022   73.2089   -4.2590 O.3     1  UNL1       -0.2703
     25 P          21.1989   72.0274   -5.1831 P.3     1  UNL1        0.2208
     26 O          21.3456   70.7147   -4.2474 O.co2   1  UNL1       -0.4371
     27 O          21.8525   71.9037   -6.5290 O.2     1  UNL1       -0.5170
     28 O          19.6126   72.3166   -5.2332 O.3     1  UNL1       -0.2858
     29 O          19.1580   71.9213   -7.5237 O.3     1  UNL1       -0.3226
     30 O          15.3497   72.1715   -5.9417 O.3     1  UNL1       -0.3794
     31 O          17.4316   74.0368   -5.0925 O.3     1  UNL1       -0.3775
     32 O          16.4690   69.5834   -6.6486 O.3     1  UNL1       -0.3792
     33 C          16.7449   71.8691   -5.9385 C.3     1  UNL1        0.1718
     34 C          17.5458   73.1457   -6.1959 C.3     1  UNL1        0.1968
     35 C          17.0090   70.8433   -7.0430 C.3     1  UNL1        0.1723
     36 C          19.0235   72.8271   -6.4278 C.3     1  UNL1        0.2706
     37 C          18.5035   70.6743   -7.3006 C.3     1  UNL1        0.1830
     38 H          15.1581   72.8218   -5.2476 H       1  UNL1        0.2105
     39 H          16.4965   74.2431   -4.9395 H       1  UNL1        0.2106
     40 H          15.5182   69.6772   -6.4814 H       1  UNL1        0.2106
     41 O          17.6607   70.0285   -9.3920 O.co2   1  UNL1       -0.5466
     42 O          19.7666   69.3348   -8.8600 O.co2   1  UNL1       -0.5466
     43 C          18.7416   69.9372   -8.5782 C.2     1  UNL1        0.0799
@<TRIPOS>UNITY_ATOM_ATTR
2 1
charge -1
26 1
charge -1
41 1
charge -1
@<TRIPOS>BOND
     1     1     4    1
     2     1    24    1
     3     1     2    1
     4     1     3    2
     5    25    28    1
     6    25    24    1
     7    25    26    1
     8    25    27    2
     9     6    11    1
    10     6    12    1
    11    29    36    1
    12    29    37    1
    13     7     9    1
    14     7    13    1
    15     8    10    1
    16     8    14    1
    17     4     5    1
    18    28    36    1
    19    30    33    1
    20    30    38    1
    21    31    34    1
    22    31    39    1
    23    32    35    1
    24    32    40    1
    25    41    43   ar
    26    15    19    2
    27    42    43   ar
    28    16    22    2
    29    17    12    1
    30    17    19   ar
    31    17    20   ar
    32    18    19   ar
    33    18    22   ar
    34    18    23    1
    35     9    10    1
    36     9    11    1
    37    10    12    1
    38    11     5    1
    39    33    34    1
    40    33    35    1
    41    34    36    1
    42    35    37    1
    43    37    43    1
    44    20    21   ar
    45    21    22   ar
@<TRIPOS>MOLECULE
*****
 43 45 0 0 0
SMALL
GASTEIGER

@<TRIPOS>ATOM
      1 P          22.9482   71.6578   -2.2078 P.3     1  UNL1        0.2189
      2 O          22.8779   73.2609   -2.4172 O.co2   1  UNL1       -0.4371
      3 O          24.1024   70.9802   -2.8865 O.2     1  UNL1       -0.5170
      4 O          21.4771   71.1441   -2.6434 O.3     1  UNL1       -0.3112
      5 C          20.8687   71.7234   -3.7830 C.3     1  UNL1        0.1811
      6 O          21.0569   70.6721   -5.9364 O.3     1  UNL1       -0.3308
      7 O          23.3167   72.5723   -6.4597 O.3     1  UNL1       -0.3794
      8 O          21.2452   73.7242   -7.8081 O.3     1  UNL1       -0.3779
      9 C          22.1049   72.7868   -5.7358 C.3     1  UNL1        0.1713
     10 C          20.9384   72.9143   -6.6925 C.3     1  UNL1        0.1895
     11 C          21.7681   71.5016   -4.9922 C.3     1  UNL1        0.1764
     12 C          20.6834   71.4660   -7.0737 C.3     1  UNL1        0.2383
     13 H          23.5523   73.3801   -6.9431 H       1  UNL1        0.2105
     14 H          21.3987   74.6360   -7.5133 H       1  UNL1        0.2106
     15 O          19.7913   69.5081   -8.9032 O.2     1  UNL1       -0.2464
     16 O          15.3691   70.5947   -8.1904 O.2     1  UNL1       -0.2670
     17 N          19.3045   71.2160   -7.3851 N.ar    1  UNL1       -0.2551
     18 N          17.5897   70.0518   -8.5472 N.ar    1  UNL1       -0.2743
     19 C          18.9631   70.2092   -8.3189 C.ar    1  UNL1        0.3323
     20 C          18.3077   71.9619   -6.7678 C.ar    1  UNL1        0.0869
     21 C          17.0028   71.8002   -6.9956 C.ar    1  UNL1        0.0795
     22 C          16.5615   70.7697   -7.9582 C.ar    1  UNL1        0.2626
     23 H          17.3276   69.3583   -9.1950 H       1  UNL1        0.1734
     24 O          22.9264   71.5006   -0.5992 O.3     1  UNL1       -0.2703
     25 P          21.7065   71.5801    0.4587 P.3     1  UNL1        0.2208
     26 O          21.4518   70.0293    0.8467 O.co2   1  UNL1       -0.4371
     27 O          20.4914   72.2965   -0.0554 O.2     1  UNL1       -0.5170
     28 O          22.3560   72.2302    1.7845 O.3     1  UNL1       -0.2858
     29 O          21.1593   74.1279    2.5433 O.3     1  UNL1       -0.3226
     30 O          24.4564   74.1627    5.0325 O.3     1  UNL1       -0.3794
     31 O          24.7559   73.5776    2.1860 O.3     1  UNL1       -0.3775
     32 O          21.8807   73.2616    6.0349 O.3     1  UNL1       -0.3792
     33 C          23.4400   73.5697    4.2242 C.3     1  UNL1        0.1718
     34 C          23.5673   74.0774    2.7877 C.3     1  UNL1        0.1968
     35 C          22.0815   73.9626    4.8091 C.3     1  UNL1        0.1723
     36 C          22.3646   73.6474    1.9468 C.3     1  UNL1        0.2706
     37 C          20.9424   73.6137    3.8554 C.3     1  UNL1        0.1830
     38 H          25.3289   73.9267    4.6798 H       1  UNL1        0.2105
     39 H          25.5232   73.8465    2.7146 H       1  UNL1        0.2106
     40 H          22.5991   73.4749    6.6508 H       1  UNL1        0.2106
     41 O          19.0060   74.7602    3.1943 O.co2   1  UNL1       -0.5466
     42 O          19.2873   74.3952    5.4274 O.co2   1  UNL1       -0.5466
     43 C          19.6754   74.2858    4.2740 C.2     1  UNL1        0.0799
@<TRIPOS>UNITY_ATOM_ATTR
2 1
charge -1
26 1
charge -1
41 1
charge -1
@<TRIPOS>BOND
     1     1     4    1
     2     1    24    1
     3     1     2    1
     4     1     3    2
     5    25    28    1
     6    25    24    1
     7    25    26    1
     8    25    27    2
     9     6    11    1
    10     6    12    1
    11    29    36    1
    12    29    37    1
    13     7     9    1
    14     7    13    1
    15     8    10    1
    16     8    14    1
    17     4     5    1
    18    28    36    1
    19    30    33    1
    20    30    38    1
    21    31    34    1
    22    31    39    1
    23    32    35    1
    24    32    40    1
    25    41    43   ar
    26    15    19    2
    27    42    43   ar
    28    16    22    2
    29    17    12    1
    30    17    19   ar
    31    17    20   ar
    32    18    19   ar
    33    18    22   ar
    34    18    23    1
    35     9    10    1
    36     9    11    1
    37    10    12    1
    38    11     5    1
    39    33    34    1
    40    33    35    1
    41    34    36    1
    42    35    37    1
    43    37    43    1
    44    20    21   ar
    45    21    22   ar
@<TRIPOS>MOLECULE
*****
 43 45 0 0 0
SMALL
GASTEIGER

@<TRIPOS>ATOM
      1 P          21.8526   72.4218   -5.6829 P.3     1  UNL1        0.2189
      2 O          21.0990   73.8022   -5.3017 O.co2   1  UNL1       -0.4371
      3 O          23.0924   72.5850   -6.5125 O.2     1  UNL1       -0.5170
      4 O          20.6861   71.5094   -6.3348 O.3     1  UNL1       -0.3112
      5 C          20.1340   71.9041   -7.5773 C.3     1  UNL1        0.1811
      6 O          18.8652   69.9044   -7.1660 O.3     1  UNL1       -0.3308
      7 O          18.0906   70.0234  -10.0604 O.3     1  UNL1       -0.3794
      8 O          15.8847   71.0284   -8.8114 O.3     1  UNL1       -0.3779
      9 C          18.2938   71.0913   -9.1347 C.3     1  UNL1        0.1713
     10 C          17.1327   71.1737   -8.1665 C.3     1  UNL1        0.1895
     11 C          19.4464   70.7052   -8.2178 C.3     1  UNL1        0.1764
     12 C          17.4350   70.0300   -7.2134 C.3     1  UNL1        0.2383
     13 H          17.3587   70.2471  -10.6570 H       1  UNL1        0.2105
     14 H          15.7389   71.7810   -9.4067 H       1  UNL1        0.2106
     15 O          16.3206   68.0540   -5.5311 O.2     1  UNL1       -0.2464
     16 O          15.5828   71.0929   -2.1452 O.2     1  UNL1       -0.2670
     17 N          16.9439   70.2773   -5.8873 N.ar    1  UNL1       -0.2551
     18 N          15.9533   69.5696   -3.8467 N.ar    1  UNL1       -0.2743
     19 C          16.4029   69.2148   -5.1254 C.ar    1  UNL1        0.3323
     20 C          17.0021   71.5592   -5.3540 C.ar    1  UNL1        0.0869
     21 C          16.5696   71.8820   -4.1336 C.ar    1  UNL1        0.0795
     22 C          15.9895   70.8302   -3.2729 C.ar    1  UNL1        0.2626
     23 H          15.5707   68.8471   -3.2982 H       1  UNL1        0.1734
     24 O          22.0929   71.7296   -4.2421 O.3     1  UNL1       -0.2703
     25 P          23.2657   71.9346   -3.1484 P.3     1  UNL1        0.2208
     26 O          23.9240   73.3512   -3.5731 O.co2   1  UNL1       -0.4371
     27 O          24.2424   70.7969   -3.0723 O.2     1  UNL1       -0.5170
     28 O          22.4892   72.2438   -1.7686 O.3     1  UNL1       -0.2858
     29 O          23.1689   70.7643   -0.0487 O.3     1  UNL1       -0.3226
     30 O          20.1281   72.8625    1.8003 O.3     1  UNL1       -0.3794
     31 O          19.8406   71.9676   -0.9657 O.3     1  UNL1       -0.3775
     32 O          22.9029   73.4436    2.4439 O.3     1  UNL1       -0.3792
     33 C          21.2206   72.6721    0.9013 C.3     1  UNL1        0.1718
     34 C          20.8814   71.5560   -0.0870 C.3     1  UNL1        0.1968
     35 C          22.4526   72.2955    1.7272 C.3     1  UNL1        0.1723
     36 C          22.1072   71.1670   -0.9147 C.3     1  UNL1        0.2706
     37 C          23.5889   71.7991    0.8379 C.3     1  UNL1        0.1830
     38 H          19.3337   73.1027    1.2979 H       1  UNL1        0.2105
     39 H          19.0597   72.2162   -0.4472 H       1  UNL1        0.2106
     40 H          22.1888   73.7696    3.0137 H       1  UNL1        0.2106
     41 O          25.4832   72.0522    2.1978 O.co2   1  UNL1       -0.5466
     42 O          24.7540   69.9259    1.8153 O.co2   1  UNL1       -0.5466
     43 C          24.6484   71.1324    1.6536 C.2     1  UNL1        0.0799
@<TRIPOS>UNITY_ATOM_ATTR
2 1
charge -1
26 1
charge -1
41 1
charge -1
@<TRIPOS>BOND
     1     1     4    1
     2     1    24    1
     3     1     2    1
     4     1     3    2
     5    25    28    1
     6    25    24    1
     7    25    26    1
     8    25    27    2
     9     6    11    1
    10     6    12    1
    11    29    36    1
    12    29    37    1
    13     7     9    1
    14     7    13    1
    15     8    10    1
    16     8    14    1
    17     4     5    1
    18    28    36    1
    19    30    33    1
    20    30    38    1
    21    31    34    1
    22    31    39    1
    23    32    35    1
    24    32    40    1
    25    41    43   ar
    26    15    19    2
    27    42    43   ar
    28    16    22    2
    29    17    12    1
    30    17    19   ar
    31    17    20   ar
    32    18    19   ar
    33    18    22   ar
    34    18    23    1
    35     9    10    1
    36     9    11    1
    37    10    12    1
    38    11     5    1
    39    33    34    1
    40    33    35    1
    41    34    36    1
    42    35    37    1
    43    37    43    1
    44    20    21   ar
    45    21    22   ar
@<TRIPOS>MOLECULE
*****
 43 45 0 0 0
SMALL
GASTEIGER

@<TRIPOS>ATOM
      1 P          22.9244   71.6125   -2.2318 P.3     1  UNL1        0.2189
      2 O          22.8527   73.2285   -2.1856 O.co2   1  UNL1       -0.4371
      3 O          24.0452   71.0514   -3.0568 O.2     1  UNL1       -0.5170
      4 O          21.4335   71.1700   -2.6784 O.3     1  UNL1       -0.3112
      5 C          20.8319   71.8323   -3.7757 C.3     1  UNL1        0.1811
      6 O          21.1105   70.9196   -5.9818 O.3     1  UNL1       -0.3308
      7 O          23.2538   72.9818   -6.3624 O.3     1  UNL1       -0.3794
      8 O          21.1307   74.0797   -7.6752 O.3     1  UNL1       -0.3779
      9 C          22.0226   73.0797   -5.6462 C.3     1  UNL1        0.1713
     10 C          20.8618   73.1899   -6.6119 C.3     1  UNL1        0.1895
     11 C          21.7576   71.7357   -4.9816 C.3     1  UNL1        0.1764
     12 C          20.7018   71.7529   -7.0781 C.3     1  UNL1        0.2383
     13 H          23.4444   73.8289   -6.7957 H       1  UNL1        0.2105
     14 H          21.2238   74.9808   -7.3270 H       1  UNL1        0.2106
     15 O          19.9400   69.6027   -8.7431 O.2     1  UNL1       -0.2464
     16 O          15.4663   70.6351   -8.3381 O.2     1  UNL1       -0.2670
     17 N          19.3448   71.4370   -7.4242 N.ar    1  UNL1       -0.2551
     18 N          17.7126   70.1196   -8.5406 N.ar    1  UNL1       -0.2743
     19 C          19.0700   70.3351   -8.2682 C.ar    1  UNL1        0.3323
     20 C          18.3040   72.2127   -6.9284 C.ar    1  UNL1        0.0869
     21 C          17.0151   71.9948   -7.1968 C.ar    1  UNL1        0.0795
     22 C          16.6423   70.8638   -8.0716 C.ar    1  UNL1        0.2626
     23 H          17.4966   69.3593   -9.1277 H       1  UNL1        0.1734
     24 O          22.9708   71.2064   -0.6679 O.3     1  UNL1       -0.2703
     25 P          21.9830   71.5814    0.5558 P.3     1  UNL1        0.2208
     26 O          21.5743   70.1353    1.1576 O.co2   1  UNL1       -0.4371
     27 O          20.8158   72.4405    0.1640 O.2     1  UNL1       -0.5170
     28 O          22.9464   72.2306    1.6751 O.3     1  UNL1       -0.2858
     29 O          23.3440   74.4779    1.0419 O.3     1  UNL1       -0.3226
     30 O          25.4802   74.2074    4.5678 O.3     1  UNL1       -0.3794
     31 O          25.5544   72.0308    2.6206 O.3     1  UNL1       -0.3775
     32 O          22.9253   75.5932    4.5122 O.3     1  UNL1       -0.3792
     33 C          24.4202   73.9068    3.6599 C.3     1  UNL1        0.1718
     34 C          24.9997   73.3176    2.3737 C.3     1  UNL1        0.1968
     35 C          23.6717   75.2074    3.3596 C.3     1  UNL1        0.1723
     36 C          23.9236   73.1972    1.2937 C.3     1  UNL1        0.2706
     37 C          22.7081   75.0379    2.1886 C.3     1  UNL1        0.1830
     38 H          25.9702   73.3956    4.7732 H       1  UNL1        0.2105
     39 H          26.2379   72.0997    3.3052 H       1  UNL1        0.2106
     40 H          23.5270   75.7043    5.2648 H       1  UNL1        0.2106
     41 O          21.9419   76.3082    0.3718 O.co2   1  UNL1       -0.5466
     42 O          22.1218   77.3704    2.3814 O.co2   1  UNL1       -0.5466
     43 C          22.2347   76.3661    1.6946 C.2     1  UNL1        0.0799
@<TRIPOS>UNITY_ATOM_ATTR
2 1
charge -1
26 1
charge -1
41 1
charge -1
@<TRIPOS>BOND
     1     1     4    1
     2     1    24    1
     3     1     2    1
     4     1     3    2
     5    25    28    1
     6    25    24    1
     7    25    26    1
     8    25    27    2
     9     6    11    1
    10     6    12    1
    11    29    36    1
    12    29    37    1
    13     7     9    1
    14     7    13    1
    15     8    10    1
    16     8    14    1
    17     4     5    1
    18    28    36    1
    19    30    33    1
    20    30    38    1
    21    31    34    1
    22    31    39    1
    23    32    35    1
    24    32    40    1
    25    41    43   ar
    26    15    19    2
    27    42    43   ar
    28    16    22    2
    29    17    12    1
    30    17    19   ar
    31    17    20   ar
    32    18    19   ar
    33    18    22   ar
    34    18    23    1
    35     9    10    1
    36     9    11    1
    37    10    12    1
    38    11     5    1
    39    33    34    1
    40    33    35    1
    41    34    36    1
    42    35    37    1
    43    37    43    1
    44    20    21   ar
    45    21    22   ar
@<TRIPOS>MOLECULE
*****
 43 45 0 0 0
SMALL
GASTEIGER

@<TRIPOS>ATOM
      1 P          24.0139   73.8581   -3.6489 P.3     1  UNL1        0.2189
      2 O          22.6934   74.7890   -3.7419 O.co2   1  UNL1       -0.4371
      3 O          25.3073   74.5628   -3.9363 O.2     1  UNL1       -0.5170
      4 O          23.6710   72.6004   -4.6073 O.3     1  UNL1       -0.3112
      5 C          22.3124   72.3011   -4.8698 C.3     1  UNL1        0.1811
      6 O          21.1420   71.5378   -6.8257 O.3     1  UNL1       -0.3308
      7 O          21.5311   74.3059   -7.9110 O.3     1  UNL1       -0.3794
      8 O          18.9441   74.3614   -7.0506 O.3     1  UNL1       -0.3779
      9 C          21.2800   73.8885   -6.5689 C.3     1  UNL1        0.1713
     10 C          19.8336   73.4693   -6.4123 C.3     1  UNL1        0.1895
     11 C          22.0185   72.5771   -6.3388 C.3     1  UNL1        0.1764
     12 C          19.8345   72.0895   -7.0480 C.3     1  UNL1        0.2383
     13 H          21.0693   75.1421   -8.0817 H       1  UNL1        0.2105
     14 H          18.9800   75.2250   -6.6092 H       1  UNL1        0.2106
     15 O          19.3553   71.8552   -4.2746 O.2     1  UNL1       -0.2464
     16 O          16.0492   68.7105   -4.9264 O.2     1  UNL1       -0.2670
     17 N          18.8544   71.2172   -6.4656 N.ar    1  UNL1       -0.2551
     18 N          17.7098   70.2885   -4.6018 N.ar    1  UNL1       -0.2743
     19 C          18.6933   71.1747   -5.0605 C.ar    1  UNL1        0.3323
     20 C          18.0647   70.4175   -7.2828 C.ar    1  UNL1        0.0869
     21 C          17.1312   69.5778   -6.8310 C.ar    1  UNL1        0.0795
     22 C          16.9002   69.4725   -5.3753 C.ar    1  UNL1        0.2626
     23 H          17.5808   70.2399   -3.6270 H       1  UNL1        0.1734
     24 O          23.9075   73.2244   -2.1657 O.3     1  UNL1       -0.2703
     25 P          22.6686   72.5274   -1.3957 P.3     1  UNL1        0.2208
     26 O          22.8930   70.9507   -1.6854 O.co2   1  UNL1       -0.4371
     27 O          21.3199   73.0454   -1.8039 O.2     1  UNL1       -0.5170
     28 O          23.0081   72.7058    0.1713 O.3     1  UNL1       -0.2858
     29 O          24.5369   71.4519    1.4751 O.3     1  UNL1       -0.3226
     30 O          21.7521   72.5892    4.3070 O.3     1  UNL1       -0.3794
     31 O          20.8934   71.6881    1.6641 O.3     1  UNL1       -0.3775
     32 O          24.3366   73.9147    4.1874 O.3     1  UNL1       -0.3792
     33 C          22.5339   72.7247    3.1202 C.3     1  UNL1        0.1718
     34 C          22.2197   71.5721    2.1661 C.3     1  UNL1        0.1968
     35 C          24.0106   72.6966    3.5209 C.3     1  UNL1        0.1723
     36 C          23.1974   71.5533    0.9903 C.3     1  UNL1        0.2706
     37 C          24.9160   72.5505    2.3013 C.3     1  UNL1        0.1830
     38 H          20.8097   72.6044    4.0771 H       1  UNL1        0.2105
     39 H          20.2677   71.7010    2.4049 H       1  UNL1        0.2106
     40 H          23.7672   74.0199    4.9656 H       1  UNL1        0.2106
     41 O          26.6102   70.9288    2.3362 O.co2   1  UNL1       -0.5466
     42 O          27.0748   72.9394    3.3061 O.co2   1  UNL1       -0.5466
     43 C          26.3077   72.1958    2.7133 C.2     1  UNL1        0.0799
@<TRIPOS>UNITY_ATOM_ATTR
2 1
charge -1
26 1
charge -1
41 1
charge -1
@<TRIPOS>BOND
     1     1     4    1
     2     1    24    1
     3     1     2    1
     4     1     3    2
     5    25    28    1
     6    25    24    1
     7    25    26    1
     8    25    27    2
     9     6    11    1
    10     6    12    1
    11    29    36    1
    12    29    37    1
    13     7     9    1
    14     7    13    1
    15     8    10    1
    16     8    14    1
    17     4     5    1
    18    28    36    1
    19    30    33    1
    20    30    38    1
    21    31    34    1
    22    31    39    1
    23    32    35    1
    24    32    40    1
    25    41    43   ar
    26    15    19    2
    27    42    43   ar
    28    16    22    2
    29    17    12    1
    30    17    19   ar
    31    17    20   ar
    32    18    19   ar
    33    18    22   ar
    34    18    23    1
    35     9    10    1
    36     9    11    1
    37    10    12    1
    38    11     5    1
    39    33    34    1
    40    33    35    1
    41    34    36    1
    42    35    37    1
    43    37    43    1
    44    20    21   ar
    45    21    22   ar
@<TRIPOS>MOLECULE
*****
 43 45 0 0 0
SMALL
GASTEIGER

@<TRIPOS>ATOM
      1 P          21.8633   72.4959   -5.6694 P.3     1  UNL1        0.2189
      2 O          21.2548   73.9501   -5.3037 O.co2   1  UNL1       -0.4371
      3 O          23.0831   72.5209   -6.5430 O.2     1  UNL1       -0.5170
      4 O          20.5951   71.6806   -6.2567 O.3     1  UNL1       -0.3112
      5 C          20.0994   72.0313   -7.5357 C.3     1  UNL1        0.1811
      6 O          18.9058   69.9870   -7.1187 O.3     1  UNL1       -0.3308
      7 O          18.1328   70.0656  -10.0149 O.3     1  UNL1       -0.3794
      8 O          15.8883   70.9920   -8.7738 O.3     1  UNL1       -0.3779
      9 C          18.2940   71.1439   -9.0931 C.3     1  UNL1        0.1713
     10 C          17.1288   71.1864   -8.1273 C.3     1  UNL1        0.1895
     11 C          19.4585   70.8049   -8.1727 C.3     1  UNL1        0.1764
     12 C          17.4720   70.0586   -7.1691 C.3     1  UNL1        0.2383
     13 H          17.3941   70.2593  -10.6137 H       1  UNL1        0.2105
     14 H          15.7155   71.7362   -9.3723 H       1  UNL1        0.2106
     15 O          16.2834   68.0798   -5.5419 O.2     1  UNL1       -0.2464
     16 O          15.5790   71.0694   -2.1053 O.2     1  UNL1       -0.2670
     17 N          16.9693   70.2925   -5.8449 N.ar    1  UNL1       -0.2551
     18 N          15.9328   69.5709   -3.8322 N.ar    1  UNL1       -0.2743
     19 C          16.3905   69.2298   -5.1117 C.ar    1  UNL1        0.3323
     20 C          17.0538   71.5615   -5.2851 C.ar    1  UNL1        0.0869
     21 C          16.6132   71.8714   -4.0642 C.ar    1  UNL1        0.0795
     22 C          15.9941   70.8184   -3.2327 C.ar    1  UNL1        0.2626
     23 H          15.5240   68.8480   -3.3035 H       1  UNL1        0.1734
     24 O          22.0884   71.8212   -4.2178 O.3     1  UNL1       -0.2703
     25 P          23.3200   71.9301   -3.1762 P.3     1  UNL1        0.2208
     26 O          24.0429   73.3146   -3.6016 O.co2   1  UNL1       -0.4371
     27 O          24.2284   70.7348   -3.1696 O.2     1  UNL1       -0.5170
     28 O          22.6271   72.2523   -1.7554 O.3     1  UNL1       -0.2858
     29 O          22.5820   74.0906   -0.2628 O.3     1  UNL1       -0.3226
     30 O          22.9776   70.9053    2.3382 O.3     1  UNL1       -0.3794
     31 O          24.5108   70.9869   -0.1471 O.3     1  UNL1       -0.3775
     32 O          20.4119   72.2404    2.0457 O.3     1  UNL1       -0.3792
     33 C          22.5478   71.5737    1.1523 C.3     1  UNL1        0.1718
     34 C          23.7664   72.0792    0.3796 C.3     1  UNL1        0.1968
     35 C          21.6565   72.7465    1.5670 C.3     1  UNL1        0.1723
     36 C          23.3439   72.9945   -0.7704 C.3     1  UNL1        0.2706
     37 C          21.3835   73.6813    0.3922 C.3     1  UNL1        0.1830
     38 H          23.5457   70.1560    2.0995 H       1  UNL1        0.2105
     39 H          24.7819   70.4018    0.5771 H       1  UNL1        0.2106
     40 H          20.5716   71.6437    2.7936 H       1  UNL1        0.2106
     41 O          20.7962   75.8907   -0.1323 O.co2   1  UNL1       -0.5466
     42 O          20.3855   75.1826    1.9958 O.co2   1  UNL1       -0.5466
     43 C          20.8023   74.9735    0.8665 C.2     1  UNL1        0.0799
@<TRIPOS>UNITY_ATOM_ATTR
2 1
charge -1
26 1
charge -1
41 1
charge -1
@<TRIPOS>BOND
     1     1     4    1
     2     1    24    1
     3     1     2    1
     4     1     3    2
     5    25    28    1
     6    25    24    1
     7    25    26    1
     8    25    27    2
     9     6    11    1
    10     6    12    1
    11    29    36    1
    12    29    37    1
    13     7     9    1
    14     7    13    1
    15     8    10    1
    16     8    14    1
    17     4     5    1
    18    28    36    1
    19    30    33    1
    20    30    38    1
    21    31    34    1
    22    31    39    1
    23    32    35    1
    24    32    40    1
    25    41    43   ar
    26    15    19    2
    27    42    43   ar
    28    16    22    2
    29    17    12    1
    30    17    19   ar
    31    17    20   ar
    32    18    19   ar
    33    18    22   ar
    34    18    23    1
    35     9    10    1
    36     9    11    1
    37    10    12    1
    38    11     5    1
    39    33    34    1
    40    33    35    1
    41    34    36    1
    42    35    37    1
    43    37    43    1
    44    20    21   ar
    45    21    22   ar
@<TRIPOS>MOLECULE
*****
 43 45 0 0 0
SMALL
GASTEIGER

@<TRIPOS>ATOM
      1 P          23.3774   72.1847   -3.5145 P.3     1  UNL1        0.2189
      2 O          23.9253   70.6829   -3.2633 O.co2   1  UNL1       -0.4371
      3 O          24.3930   73.1472   -4.0567 O.2     1  UNL1       -0.5170
      4 O          22.7053   72.5947   -2.1009 O.3     1  UNL1       -0.3112
      5 C          23.5328   72.6659   -0.9543 C.3     1  UNL1        0.1811
      6 O          24.5012   71.2231    0.7065 O.3     1  UNL1       -0.3308
      7 O          21.7243   70.1845    1.1552 O.3     1  UNL1       -0.3794
      8 O          22.0600   71.9084    3.2413 O.3     1  UNL1       -0.3779
      9 C          22.1540   71.5101    0.8445 C.3     1  UNL1        0.1713
     10 C          22.7916   72.1525    2.0582 C.3     1  UNL1        0.1895
     11 C          23.3300   71.4094   -0.1174 C.3     1  UNL1        0.1764
     12 C          24.1644   71.5020    2.0748 C.3     1  UNL1        0.2383
     13 H          20.9734   70.2231    1.7687 H       1  UNL1        0.2105
     14 H          21.1944   72.3432    3.1817 H       1  UNL1        0.2106
     15 O          26.8684   70.7677    2.4290 O.2     1  UNL1       -0.2464
     16 O          27.9335   74.8674    4.2461 O.2     1  UNL1       -0.2670
     17 N          25.1697   72.3581    2.6380 N.ar    1  UNL1       -0.2551
     18 N          27.3961   72.8100    3.3346 N.ar    1  UNL1       -0.2743
     19 C          26.4990   71.8923    2.7723 C.ar    1  UNL1        0.3323
     20 C          24.8359   73.6429    3.0487 C.ar    1  UNL1        0.0869
     21 C          25.7020   74.5062    3.5828 C.ar    1  UNL1        0.0795
     22 C          27.1111   74.0978    3.7587 C.ar    1  UNL1        0.2626
     23 H          28.3271   72.5076    3.4401 H       1  UNL1        0.1734
     24 O          22.0960   71.9482   -4.4711 O.3     1  UNL1       -0.2703
     25 P          21.4866   72.8452   -5.6701 P.3     1  UNL1        0.2208
     26 O          22.4410   72.4815   -6.9259 O.co2   1  UNL1       -0.4371
     27 O          21.4034   74.3119   -5.3609 O.2     1  UNL1       -0.5170
     28 O          20.0718   72.1535   -6.0203 O.3     1  UNL1       -0.2858
     29 O          19.3099   69.9966   -5.4068 O.3     1  UNL1       -0.3226
     30 O          17.3112   70.6124   -8.9697 O.3     1  UNL1       -0.3794
     31 O          20.1154   71.3831   -8.6925 O.3     1  UNL1       -0.3775
     32 O          15.8933   70.8430   -6.4424 O.3     1  UNL1       -0.3792
     33 C          17.9209   70.9901   -7.7354 C.3     1  UNL1        0.1718
     34 C          19.3974   70.5934   -7.7515 C.3     1  UNL1        0.1968
     35 C          17.1875   70.2657   -6.6044 C.3     1  UNL1        0.1723
     36 C          20.0267   70.7711   -6.3690 C.3     1  UNL1        0.2706
     37 C          17.9434   70.3846   -5.2842 C.3     1  UNL1        0.1830
     38 H          17.7610   71.0606   -9.7032 H       1  UNL1        0.2105
     39 H          19.7213   71.2753   -9.5719 H       1  UNL1        0.2106
     40 H          15.4018   70.7739   -7.2758 H       1  UNL1        0.2106
     41 O          18.2761   69.2737   -3.2454 O.co2   1  UNL1       -0.5466
     42 O          16.3386   68.8352   -4.3647 O.co2   1  UNL1       -0.5466
     43 C          17.4091   69.4179   -4.2781 C.2     1  UNL1        0.0799
@<TRIPOS>UNITY_ATOM_ATTR
2 1
charge -1
26 1
charge -1
41 1
charge -1
@<TRIPOS>BOND
     1     1     4    1
     2     1    24    1
     3     1     2    1
     4     1     3    2
     5    25    28    1
     6    25    24    1
     7    25    26    1
     8    25    27    2
     9     6    11    1
    10     6    12    1
    11    29    36    1
    12    29    37    1
    13     7     9    1
    14     7    13    1
    15     8    10    1
    16     8    14    1
    17     4     5    1
    18    28    36    1
    19    30    33    1
    20    30    38    1
    21    31    34    1
    22    31    39    1
    23    32    35    1
    24    32    40    1
    25    41    43   ar
    26    15    19    2
    27    42    43   ar
    28    16    22    2
    29    17    12    1
    30    17    19   ar
    31    17    20   ar
    32    18    19   ar
    33    18    22   ar
    34    18    23    1
    35     9    10    1
    36     9    11    1
    37    10    12    1
    38    11     5    1
    39    33    34    1
    40    33    35    1
    41    34    36    1
    42    35    37    1
    43    37    43    1
    44    20    21   ar
    45    21    22   ar
@<TRIPOS>MOLECULE
*****
 43 45 0 0 0
SMALL
GASTEIGER

@<TRIPOS>ATOM
      1 P          23.3598   73.2123   -3.8430 P.3     1  UNL1        0.2189
      2 O          23.3414   74.0351   -5.2364 O.co2   1  UNL1       -0.4371
      3 O          24.1930   71.9643   -3.8551 O.2     1  UNL1       -0.5170
      4 O          21.7937   73.0081   -3.4916 O.3     1  UNL1       -0.3112
      5 C          21.1045   71.9211   -4.0815 C.3     1  UNL1        0.1811
      6 O          18.8917   72.3121   -4.9348 O.3     1  UNL1       -0.3308
      7 O          17.8944   71.0345   -2.4119 O.3     1  UNL1       -0.3794
      8 O          17.6530   69.0211   -4.2351 O.3     1  UNL1       -0.3779
      9 C          19.0481   70.7168   -3.1908 C.3     1  UNL1        0.1713
     10 C          18.6415   70.0038   -4.4630 C.3     1  UNL1        0.1895
     11 C          19.6264   72.0194   -3.7266 C.3     1  UNL1        0.1764
     12 C          18.1379   71.1519   -5.3209 C.3     1  UNL1        0.2383
     13 H          17.5073   70.2178   -2.0588 H       1  UNL1        0.2105
     14 H          18.0227   68.3123   -3.6847 H       1  UNL1        0.2106
     15 O          16.0451   70.9023   -7.2010 O.2     1  UNL1       -0.2464
     16 O          19.0003   70.2410  -10.6757 O.2     1  UNL1       -0.2670
     17 N          18.3321   70.9143   -6.7232 N.ar    1  UNL1       -0.2551
     18 N          17.5189   70.5722   -8.9296 N.ar    1  UNL1       -0.2743
     19 C          17.2131   70.8048   -7.5822 C.ar    1  UNL1        0.3323
     20 C          19.6185   70.7939   -7.2347 C.ar    1  UNL1        0.0869
     21 C          19.8943   70.5723   -8.5214 C.ar    1  UNL1        0.0795
     22 C          18.7817   70.4444   -9.4853 C.ar    1  UNL1        0.2626
     23 H          16.7561   70.4902   -9.5466 H       1  UNL1        0.1734
     24 O          23.8307   74.3259   -2.7702 O.3     1  UNL1       -0.2703
     25 P          23.0365   75.0248   -1.5477 P.3     1  UNL1        0.2208
     26 O          21.6938   75.5896   -2.2539 O.co2   1  UNL1       -0.4371
     27 O          23.8313   76.0636   -0.8108 O.2     1  UNL1       -0.5170
     28 O          22.5297   73.7962   -0.6333 O.3     1  UNL1       -0.2858
     29 O          23.6511   73.5000    1.4316 O.3     1  UNL1       -0.3226
     30 O          21.5120   69.9789    1.1239 O.3     1  UNL1       -0.3794
     31 O          22.8683   71.0964   -1.2098 O.3     1  UNL1       -0.3775
     32 O          20.6263   72.0705    2.9381 O.3     1  UNL1       -0.3792
     33 C          21.7649   71.3710    0.9334 C.3     1  UNL1        0.1718
     34 C          23.0506   71.5517    0.1259 C.3     1  UNL1        0.1968
     35 C          21.9071   72.0188    2.3125 C.3     1  UNL1        0.1723
     36 C          23.4771   73.0201    0.0978 C.3     1  UNL1        0.2706
     37 C          22.4561   73.4387    2.2071 C.3     1  UNL1        0.1830
     38 H          21.4181   69.5461    0.2606 H       1  UNL1        0.2105
     39 H          22.5973   70.1654   -1.1995 H       1  UNL1        0.2106
     40 H          20.2656   71.1731    3.0112 H       1  UNL1        0.2106
     41 O          23.0302   72.9090    4.4187 O.co2   1  UNL1       -0.5466
     42 O          23.1153   75.1075    3.8201 O.co2   1  UNL1       -0.5466
     43 C          22.8981   73.9371    3.5444 C.2     1  UNL1        0.0799
@<TRIPOS>UNITY_ATOM_ATTR
2 1
charge -1
26 1
charge -1
41 1
charge -1
@<TRIPOS>BOND
     1     1     4    1
     2     1    24    1
     3     1     2    1
     4     1     3    2
     5    25    28    1
     6    25    24    1
     7    25    26    1
     8    25    27    2
     9     6    11    1
    10     6    12    1
    11    29    36    1
    12    29    37    1
    13     7     9    1
    14     7    13    1
    15     8    10    1
    16     8    14    1
    17     4     5    1
    18    28    36    1
    19    30    33    1
    20    30    38    1
    21    31    34    1
    22    31    39    1
    23    32    35    1
    24    32    40    1
    25    41    43   ar
    26    15    19    2
    27    42    43   ar
    28    16    22    2
    29    17    12    1
    30    17    19   ar
    31    17    20   ar
    32    18    19   ar
    33    18    22   ar
    34    18    23    1
    35     9    10    1
    36     9    11    1
    37    10    12    1
    38    11     5    1
    39    33    34    1
    40    33    35    1
    41    34    36    1
    42    35    37    1
    43    37    43    1
    44    20    21   ar
    45    21    22   ar
@<TRIPOS>MOLECULE
*****
 43 45 0 0 0
SMALL
GASTEIGER

@<TRIPOS>ATOM
      1 P          20.5191   70.8582   -2.8383 P.3     1  UNL1        0.2189
      2 O          20.8079   69.6148   -3.8330 O.co2   1  UNL1       -0.4371
      3 O          20.2764   70.4809   -1.4063 O.2     1  UNL1       -0.5170
      4 O          19.3204   71.6666   -3.5648 O.3     1  UNL1       -0.3112
      5 C          19.5747   72.9796   -4.0293 C.3     1  UNL1        0.1811
      6 O          18.1705   73.7106   -5.8380 O.3     1  UNL1       -0.3308
      7 O          15.9337   73.7449   -3.8414 O.3     1  UNL1       -0.3794
      8 O          15.5060   71.4052   -5.1751 O.3     1  UNL1       -0.3779
      9 C          17.0355   72.8433   -3.9485 C.3     1  UNL1        0.1713
     10 C          16.8280   71.8980   -5.1129 C.3     1  UNL1        0.1895
     11 C          18.2526   73.6401   -4.3980 C.3     1  UNL1        0.1764
     12 C          17.1806   72.7779   -6.3001 C.3     1  UNL1        0.2383
     13 H          15.1441   73.2585   -3.5554 H       1  UNL1        0.2105
     14 H          15.3306   70.8511   -4.3978 H       1  UNL1        0.2106
     15 O          15.6260   71.5229   -8.2962 O.2     1  UNL1       -0.2464
     16 O          19.3672   69.9229  -10.4613 O.2     1  UNL1       -0.2670
     17 N          17.7226   72.0269   -7.3969 N.ar    1  UNL1       -0.2551
     18 N          17.4907   70.7264   -9.3721 N.ar    1  UNL1       -0.2743
     19 C          16.8544   71.4361   -8.3453 C.ar    1  UNL1        0.3323
     20 C          19.0986   71.8830   -7.5262 C.ar    1  UNL1        0.0869
     21 C          19.6905   71.2035   -8.5105 C.ar    1  UNL1        0.0795
     22 C          18.8550   70.5549   -9.5423 C.ar    1  UNL1        0.2626
     23 H          16.9069   70.3045  -10.0432 H       1  UNL1        0.1734
     24 O          21.7990   71.8167   -3.0745 O.3     1  UNL1       -0.2703
     25 P          23.1624   71.9955   -2.2243 P.3     1  UNL1        0.2208
     26 O          23.6963   73.4530   -2.6836 O.co2   1  UNL1       -0.4371
     27 O          24.1556   70.8856   -2.4125 O.2     1  UNL1       -0.5170
     28 O          22.6711   72.2031   -0.7018 O.3     1  UNL1       -0.2858
     29 O          24.3989   72.6279    0.8614 O.3     1  UNL1       -0.3226
     30 O          21.1613   71.9757    3.3434 O.3     1  UNL1       -0.3794
     31 O          21.5958   70.2848    1.0011 O.3     1  UNL1       -0.3775
     32 O          22.1363   74.6777    2.8964 O.3     1  UNL1       -0.3792
     33 C          21.8274   72.4057    2.1563 C.3     1  UNL1        0.1718
     34 C          22.5415   71.2176    1.5113 C.3     1  UNL1        0.1968
     35 C          22.8383   73.4864    2.5463 C.3     1  UNL1        0.1723
     36 C          23.4508   71.6789    0.3715 C.3     1  UNL1        0.2706
     37 C          23.7893   73.8012    1.3951 C.3     1  UNL1        0.1830
     38 H          20.5137   71.2886    3.1203 H       1  UNL1        0.2105
     39 H          21.0153   69.9881    1.7190 H       1  UNL1        0.2106
     40 H          21.5274   74.4910    3.6280 H       1  UNL1        0.2106
     41 O          25.1923   74.3594    3.1899 O.co2   1  UNL1       -0.5466
     42 O          25.6196   75.3592    1.1856 O.co2   1  UNL1       -0.5466
     43 C          24.9584   74.5977    1.8756 C.2     1  UNL1        0.0799
@<TRIPOS>UNITY_ATOM_ATTR
2 1
charge -1
26 1
charge -1
41 1
charge -1
@<TRIPOS>BOND
     1     1     4    1
     2     1    24    1
     3     1     2    1
     4     1     3    2
     5    25    28    1
     6    25    24    1
     7    25    26    1
     8    25    27    2
     9     6    11    1
    10     6    12    1
    11    29    36    1
    12    29    37    1
    13     7     9    1
    14     7    13    1
    15     8    10    1
    16     8    14    1
    17     4     5    1
    18    28    36    1
    19    30    33    1
    20    30    38    1
    21    31    34    1
    22    31    39    1
    23    32    35    1
    24    32    40    1
    25    41    43   ar
    26    15    19    2
    27    42    43   ar
    28    16    22    2
    29    17    12    1
    30    17    19   ar
    31    17    20   ar
    32    18    19   ar
    33    18    22   ar
    34    18    23    1
    35     9    10    1
    36     9    11    1
    37    10    12    1
    38    11     5    1
    39    33    34    1
    40    33    35    1
    41    34    36    1
    42    35    37    1
    43    37    43    1
    44    20    21   ar
    45    21    22   ar
@<TRIPOS>MOLECULE
*****
 43 45 0 0 0
SMALL
GASTEIGER

@<TRIPOS>ATOM
      1 P          21.3954   71.5984   -2.1644 P.3     1  UNL1        0.2189
      2 O          22.4475   70.3830   -2.3513 O.co2   1  UNL1       -0.4371
      3 O          20.8851   71.7852   -0.7657 O.2     1  UNL1       -0.5170
      4 O          20.2694   71.3143   -3.2911 O.3     1  UNL1       -0.3112
      5 C          19.4418   70.1746   -3.1475 C.3     1  UNL1        0.1811
      6 O          17.7643   71.4001   -4.3564 O.3     1  UNL1       -0.3308
      7 O          15.7516   69.8942   -2.7215 O.3     1  UNL1       -0.3794
      8 O          15.7100   68.5567   -5.0975 O.3     1  UNL1       -0.3779
      9 C          17.0045   69.4518   -3.2440 C.3     1  UNL1        0.1713
     10 C          16.8997   69.2274   -4.7376 C.3     1  UNL1        0.1895
     11 C          17.9837   70.6150   -3.1645 C.3     1  UNL1        0.1764
     12 C          16.9557   70.6474   -5.2745 C.3     1  UNL1        0.2383
     13 H          15.1094   69.1678   -2.7619 H       1  UNL1        0.2105
     14 H          15.7228   67.6575   -4.7323 H       1  UNL1        0.2106
     15 O          15.6277   69.9368   -7.6637 O.2     1  UNL1       -0.2464
     16 O          19.3183   70.9515  -10.2317 O.2     1  UNL1       -0.2670
     17 N          17.5459   70.7163   -6.5813 N.ar    1  UNL1       -0.2551
     18 N          17.4674   70.4419   -8.9403 N.ar    1  UNL1       -0.2743
     19 C          16.7926   70.3359   -7.7170 C.ar    1  UNL1        0.3323
     20 C          18.8552   71.1579   -6.7286 C.ar    1  UNL1        0.0869
     21 C          19.4849   71.2537   -7.9012 C.ar    1  UNL1        0.0795
     22 C          18.7688   70.8748   -9.1369 C.ar    1  UNL1        0.2626
     23 H          16.9640   70.1807   -9.7451 H       1  UNL1        0.1734
     24 O          22.1971   72.8676   -2.7638 O.3     1  UNL1       -0.2703
     25 P          23.5221   72.9467   -3.6867 P.3     1  UNL1        0.2208
     26 O          23.2926   71.7619   -4.7656 O.co2   1  UNL1       -0.4371
     27 O          24.8111   72.8469   -2.9235 O.2     1  UNL1       -0.5170
     28 O          23.3497   74.3083   -4.5345 O.3     1  UNL1       -0.2858
     29 O          21.6286   75.8006   -5.1823 O.3     1  UNL1       -0.3226
     30 O          23.6057   75.1941   -8.7588 O.3     1  UNL1       -0.3794
     31 O          23.0937   72.9565   -6.9517 O.3     1  UNL1       -0.3775
     32 O          23.9689   77.6786   -7.2938 O.3     1  UNL1       -0.3792
     33 C          23.4840   75.3190   -7.3419 C.3     1  UNL1        0.1718
     34 C          22.5233   74.2529   -6.8148 C.3     1  UNL1        0.1968
     35 C          22.9463   76.7185   -7.0350 C.3     1  UNL1        0.1723
     36 C          22.1894   74.4971   -5.3425 C.3     1  UNL1        0.2706
     37 C          22.5182   76.8432   -5.5757 C.3     1  UNL1        0.1830
     38 H          23.9458   74.3122   -8.9778 H       1  UNL1        0.2105
     39 H          23.3083   72.7949   -7.8835 H       1  UNL1        0.2106
     40 H          24.2504   77.6096   -8.2195 H       1  UNL1        0.2106
     41 O          20.4112   77.7584   -5.1017 O.co2   1  UNL1       -0.5466
     42 O          22.1323   79.2198   -5.4200 O.co2   1  UNL1       -0.5466
     43 C          21.7026   78.0773   -5.3657 C.2     1  UNL1        0.0799
@<TRIPOS>UNITY_ATOM_ATTR
2 1
charge -1
26 1
charge -1
41 1
charge -1
@<TRIPOS>BOND
     1     1     4    1
     2     1    24    1
     3     1     2    1
     4     1     3    2
     5    25    28    1
     6    25    24    1
     7    25    26    1
     8    25    27    2
     9     6    11    1
    10     6    12    1
    11    29    36    1
    12    29    37    1
    13     7     9    1
    14     7    13    1
    15     8    10    1
    16     8    14    1
    17     4     5    1
    18    28    36    1
    19    30    33    1
    20    30    38    1
    21    31    34    1
    22    31    39    1
    23    32    35    1
    24    32    40    1
    25    41    43   ar
    26    15    19    2
    27    42    43   ar
    28    16    22    2
    29    17    12    1
    30    17    19   ar
    31    17    20   ar
    32    18    19   ar
    33    18    22   ar
    34    18    23    1
    35     9    10    1
    36     9    11    1
    37    10    12    1
    38    11     5    1
    39    33    34    1
    40    33    35    1
    41    34    36    1
    42    35    37    1
    43    37    43    1
    44    20    21   ar
    45    21    22   ar
@<TRIPOS>MOLECULE
*****
 43 45 0 0 0
SMALL
GASTEIGER

@<TRIPOS>ATOM
      1 P          23.4586   72.1145   -3.4748 P.3     1  UNL1        0.2189
      2 O          24.2559   70.7816   -3.0204 O.co2   1  UNL1       -0.4371
      3 O          24.2767   73.1116   -4.2418 O.2     1  UNL1       -0.5170
      4 O          22.7950   72.6571   -2.1025 O.3     1  UNL1       -0.3112
      5 C          23.5794   72.6516   -0.9239 C.3     1  UNL1        0.1811
      6 O          24.5272   70.9945    0.5366 O.3     1  UNL1       -0.3308
      7 O          21.7041   70.2104    1.1742 O.3     1  UNL1       -0.3794
      8 O          22.4033   71.7253    3.3311 O.3     1  UNL1       -0.3779
      9 C          22.2455   71.5059    0.9147 C.3     1  UNL1        0.1713
     10 C          23.0515   71.9848    2.1035 C.3     1  UNL1        0.1895
     11 C          23.3158   71.3613   -0.1585 C.3     1  UNL1        0.1764
     12 C          24.3424   71.1995    1.9463 C.3     1  UNL1        0.2383
     13 H          21.0178   70.2773    1.8570 H       1  UNL1        0.2105
     14 H          21.5877   72.2488    3.3830 H       1  UNL1        0.2106
     15 O          24.3103   73.9068    2.7501 O.2     1  UNL1       -0.2464
     16 O          28.7629   73.7971    3.9359 O.2     1  UNL1       -0.2670
     17 N          25.4792   71.9035    2.4688 N.ar    1  UNL1       -0.2551
     18 N          26.5282   73.8499    3.3390 N.ar    1  UNL1       -0.2743
     19 C          25.3568   73.2626    2.8430 C.ar    1  UNL1        0.3323
     20 C          26.6968   71.2486    2.6075 C.ar    1  UNL1        0.0869
     21 C          27.8047   71.8217    3.0820 C.ar    1  UNL1        0.0795
     22 C          27.7623   73.2398    3.4949 C.ar    1  UNL1        0.2626
     23 H          26.4683   74.7961    3.6042 H       1  UNL1        0.1734
     24 O          22.1900   71.5211   -4.2820 O.3     1  UNL1       -0.2703
     25 P          21.2099   72.2055   -5.3704 P.3     1  UNL1        0.2208
     26 O          21.9035   71.8259   -6.7830 O.co2   1  UNL1       -0.4371
     27 O          20.9921   73.6765   -5.1640 O.2     1  UNL1       -0.5170
     28 O          19.8644   71.3167   -5.3256 O.3     1  UNL1       -0.2858
     29 O          17.6424   72.0654   -5.6590 O.3     1  UNL1       -0.3226
     30 O          17.0698   68.8113   -3.1788 O.3     1  UNL1       -0.3794
     31 O          19.2592   70.6817   -2.6862 O.3     1  UNL1       -0.3775
     32 O          16.4668   68.6080   -6.0154 O.3     1  UNL1       -0.3792
     33 C          17.7153   69.5766   -4.1965 C.3     1  UNL1        0.1718
     34 C          18.1997   70.9027   -3.6099 C.3     1  UNL1        0.1968
     35 C          16.7008   69.8280   -5.3143 C.3     1  UNL1        0.1723
     36 C          18.6886   71.8427   -4.7128 C.3     1  UNL1        0.2706
     37 C          17.2109   70.8700   -6.3056 C.3     1  UNL1        0.1830
     38 H          17.6955   68.6393   -2.4575 H       1  UNL1        0.2105
     39 H          18.9561   70.0858   -1.9837 H       1  UNL1        0.2106
     40 H          16.1420   67.9362   -5.3957 H       1  UNL1        0.2106
     41 O          15.9018   70.4803   -8.2124 O.co2   1  UNL1       -0.5466
     42 O          15.4650   72.3743   -7.0202 O.co2   1  UNL1       -0.5466
     43 C          16.1049   71.3472   -7.1896 C.2     1  UNL1        0.0799
@<TRIPOS>UNITY_ATOM_ATTR
2 1
charge -1
26 1
charge -1
41 1
charge -1
@<TRIPOS>BOND
     1     1     4    1
     2     1    24    1
     3     1     2    1
     4     1     3    2
     5    25    28    1
     6    25    24    1
     7    25    26    1
     8    25    27    2
     9     6    11    1
    10     6    12    1
    11    29    36    1
    12    29    37    1
    13     7     9    1
    14     7    13    1
    15     8    10    1
    16     8    14    1
    17     4     5    1
    18    28    36    1
    19    30    33    1
    20    30    38    1
    21    31    34    1
    22    31    39    1
    23    32    35    1
    24    32    40    1
    25    41    43   ar
    26    15    19    2
    27    42    43   ar
    28    16    22    2
    29    17    12    1
    30    17    19   ar
    31    17    20   ar
    32    18    19   ar
    33    18    22   ar
    34    18    23    1
    35     9    10    1
    36     9    11    1
    37    10    12    1
    38    11     5    1
    39    33    34    1
    40    33    35    1
    41    34    36    1
    42    35    37    1
    43    37    43    1
    44    20    21   ar
    45    21    22   ar
