@<TRIPOS>MOLECULE
UD2
 46 48 0 0 0
SMALL
GASTEIGER

@<TRIPOS>ATOM
      1 P          22.0759   70.9793   -2.7246 P.3     1  UNL1        0.2189
      2 O          21.5604   69.4547   -2.7592 O.3     1  UNL1       -0.4371
      3 O          23.3511   71.0865   -3.4671 O.2     1  UNL1       -0.5170
      4 O          20.9742   71.9338   -3.4093 O.3     1  UNL1       -0.3112
      5 C          19.9387   72.5816   -2.6680 C.3     1  UNL1        0.1811
      6 C          17.8140   71.4451   -5.3383 C.3     1  UNL1        0.2383
      7 C          17.9691   70.2122   -4.4121 C.3     1  UNL1        0.1895
      8 O          16.7999   69.3918   -4.4550 O.3     1  UNL1       -0.3779
      9 C          18.1317   70.8697   -3.0198 C.3     1  UNL1        0.1713
     10 C          18.5877   72.3075   -3.3333 C.3     1  UNL1        0.1764
     11 O          18.7149   72.4145   -4.7602 O.3     1  UNL1       -0.3308
     12 O          16.8839   70.8807   -2.3244 O.3     1  UNL1       -0.3794
     13 H          16.8488   68.6072   -3.8922 H       1  UNL1        0.2106
     14 H          16.5206   70.0015   -2.1528 H       1  UNL1        0.2105
     15 N          18.2186   71.1162   -6.7070 N.ar    1  UNL1       -0.2551
     16 C          17.2886   70.7508   -7.6072 C.ar    1  UNL1        0.3323
     17 N          17.6319   70.4428   -8.8719 N.ar    1  UNL1       -0.2743
     18 C          18.9229   70.4987   -9.2575 C.ar    1  UNL1        0.2626
     19 C          19.9122   70.8829   -8.3205 C.ar    1  UNL1        0.0795
     20 C          19.5390   71.1902   -7.0604 C.ar    1  UNL1        0.0869
     21 O          16.1206   70.6962   -7.2735 O.2     1  UNL1       -0.2464
     22 O          19.2349   70.2207  -10.4020 O.2     1  UNL1       -0.2670
     23 H          16.9489   70.1801   -9.5080 H       1  UNL1        0.1734
     24 O          22.3041   71.4344   -1.1968 O.3     1  UNL1       -0.2703
     25 P          22.5312   70.6386    0.1846 P.3     1  UNL1        0.2208
     26 O          21.3032   69.6254    0.4277 O.3     1  UNL1       -0.4371
     27 O          23.7947   69.8728    0.1112 O.2     1  UNL1       -0.5170
     28 O          22.6098   71.6892    1.4023 O.3     1  UNL1       -0.2865
     29 C          21.7479   72.8238    1.5085 C.3     1  UNL1        0.2611
     30 C          22.5338   74.0953    1.1795 C.3     1  UNL1        0.1582
     31 C          23.6594   74.2689    2.2038 C.3     1  UNL1        0.1625
     32 C          23.0542   74.3079    3.6097 C.3     1  UNL1        0.1686
     33 C          22.2481   73.0278    3.8451 C.3     1  UNL1        0.1760
     34 O          24.3528   75.4924    1.9482 O.3     1  UNL1       -0.3801
     35 O          22.1945   75.4429    3.7283 O.3     1  UNL1       -0.3794
     36 O          21.2383   72.9113    2.8407 O.3     1  UNL1       -0.3263
     37 H          25.0810   75.6667    2.5603 H       1  UNL1        0.2105
     38 H          21.7748   75.5304    4.5956 H       1  UNL1        0.2105
     39 C          22.7241   74.8350   -1.1344 C.2     1  UNL1        0.2231
     40 C          23.3134   74.7196   -2.5157 C.3     1  UNL1        0.0946
     41 N          23.1074   73.9823   -0.1639 N.am    1  UNL1       -0.2994
     42 O          21.9035   75.6961   -0.8949 O.2     1  UNL1       -0.2751
     43 H          23.7627   73.2930   -0.3553 H       1  UNL1        0.1496
     44 C          21.5908   73.0857    5.2253 C.3     1  UNL1        0.1693
     45 O          22.5362   73.5642    6.1842 O.3     1  UNL1       -0.3794
     46 H          22.1874   73.6268    7.0839 H       1  UNL1        0.2105
@<TRIPOS>BOND
     1    29    30    1
     2    30    41    1
     3    30    31    1
     4    31    34    1
     5    31    32    1
     6    32    35    1
     7    32    33    1
     8    33    36    1
     9    33    44    1
    10    39    40    1
    11    39    42    2
    12    39    41   am
    13    41    43    1
    14    29    28    1
    15    34    37    1
    16    35    38    1
    17    29    36    1
    18    44    45    1
    19    45    46    1
    20    15     6    1
    21    15    16   ar
    22    16    21    2
    23    16    17   ar
    24    17    23    1
    25    17    18   ar
    26    18    19   ar
    27    19    20   ar
    28    15    20   ar
    29    18    22    2
    30     6     7    1
    31     6    11    1
    32     7     9    1
    33     7     8    1
    34     8    13    1
    35     9    10    1
    36     9    12    1
    37    10     5    1
    38    10    11    1
    39    12    14    1
    40     5     4    1
    41     4     1    1
    42     1     2    1
    43     1    24    1
    44     1     3    2
    45    24    25    1
    46    28    25    1
    47    25    26    1
    48    25    27    2
@<TRIPOS>MOLECULE
UD2
 46 48 0 0 0
SMALL
GASTEIGER

@<TRIPOS>ATOM
      1 P          21.5949   70.9491   -3.2164 P.3     1  UNL1        0.2189
      2 O          21.0165   69.8563   -4.2472 O.3     1  UNL1       -0.4371
      3 O          23.0296   71.1798   -3.4946 O.2     1  UNL1       -0.5170
      4 O          20.7857   72.3308   -3.3894 O.3     1  UNL1       -0.3112
      5 C          19.6993   72.7066   -2.5410 C.3     1  UNL1        0.1811
      6 C          17.6780   71.5531   -5.2833 C.3     1  UNL1        0.2383
      7 C          17.8034   70.3239   -4.3476 C.3     1  UNL1        0.1895
      8 O          16.6395   69.4991   -4.4303 O.3     1  UNL1       -0.3779
      9 C          17.9125   70.9869   -2.9526 C.3     1  UNL1        0.1713
     10 C          18.3746   72.4253   -3.2544 C.3     1  UNL1        0.1764
     11 O          18.5537   72.5277   -4.6760 O.3     1  UNL1       -0.3308
     12 O          16.6399   70.9957   -2.3035 O.3     1  UNL1       -0.3794
     13 H          16.6705   68.7167   -3.8633 H       1  UNL1        0.2106
     14 H          16.2738   70.1157   -2.1422 H       1  UNL1        0.2105
     15 N          18.1337   71.2209   -6.6350 N.ar    1  UNL1       -0.2551
     16 C          17.2481   70.7848   -7.5484 C.ar    1  UNL1        0.3323
     17 N          17.6389   70.4721   -8.7981 N.ar    1  UNL1       -0.2743
     18 C          18.9336   70.5945   -9.1550 C.ar    1  UNL1        0.2626
     19 C          19.8764   71.0534   -8.2038 C.ar    1  UNL1        0.0795
     20 C          19.4560   71.3637   -6.9595 C.ar    1  UNL1        0.0869
     21 O          16.0774   70.6698   -7.2407 O.2     1  UNL1       -0.2464
     22 O          19.2886   70.3122  -10.2858 O.2     1  UNL1       -0.2670
     23 H          16.9876   70.1579   -9.4440 H       1  UNL1        0.1734
     24 O          21.4200   70.4107   -1.7088 O.3     1  UNL1       -0.2703
     25 P          22.2070   70.6750   -0.3291 P.3     1  UNL1        0.2208
     26 O          21.6202   69.7073    0.8167 O.3     1  UNL1       -0.4371
     27 O          23.6469   70.3949   -0.5207 O.2     1  UNL1       -0.5170
     28 O          22.0129   72.2109    0.1137 O.3     1  UNL1       -0.2865
     29 C          23.1075   73.0801    0.4094 C.3     1  UNL1        0.2611
     30 C          22.6499   74.1633    1.3893 C.3     1  UNL1        0.1582
     31 C          21.5525   75.0048    0.7306 C.3     1  UNL1        0.1625
     32 C          22.0909   75.5941   -0.5760 C.3     1  UNL1        0.1686
     33 C          22.5701   74.4554   -1.4804 C.3     1  UNL1        0.1760
     34 O          21.1707   76.0645    1.6108 O.3     1  UNL1       -0.3801
     35 O          23.1830   76.4700   -0.2907 O.3     1  UNL1       -0.3794
     36 O          23.5672   73.6937   -0.7966 O.3     1  UNL1       -0.3263
     37 H          20.4772   76.6383    1.2573 H       1  UNL1        0.2105
     38 H          23.5748   76.8796   -1.0748 H       1  UNL1        0.2105
     39 C          22.8406   73.5618    3.7429 C.2     1  UNL1        0.2231
     40 C          22.2991   72.9155    4.9910 C.3     1  UNL1        0.0946
     41 N          22.1226   73.5342    2.6028 N.am    1  UNL1       -0.2994
     42 O          23.9240   74.1077    3.7634 O.2     1  UNL1       -0.2751
     43 H          21.2568   73.0969    2.5857 H       1  UNL1        0.1496
     44 C          23.1645   75.0392   -2.7634 C.3     1  UNL1        0.1693
     45 O          23.5167   73.9771   -3.6524 O.3     1  UNL1       -0.3794
     46 H          23.9008   74.2743   -4.4885 H       1  UNL1        0.2105
@<TRIPOS>BOND
     1    29    30    1
     2    30    41    1
     3    30    31    1
     4    31    34    1
     5    31    32    1
     6    32    35    1
     7    32    33    1
     8    33    36    1
     9    33    44    1
    10    39    40    1
    11    39    42    2
    12    39    41   am
    13    41    43    1
    14    29    28    1
    15    34    37    1
    16    35    38    1
    17    29    36    1
    18    44    45    1
    19    45    46    1
    20    15     6    1
    21    15    16   ar
    22    16    21    2
    23    16    17   ar
    24    17    23    1
    25    17    18   ar
    26    18    19   ar
    27    19    20   ar
    28    15    20   ar
    29    18    22    2
    30     6     7    1
    31     6    11    1
    32     7     9    1
    33     7     8    1
    34     8    13    1
    35     9    10    1
    36     9    12    1
    37    10     5    1
    38    10    11    1
    39    12    14    1
    40     5     4    1
    41     4     1    1
    42     1     2    1
    43     1    24    1
    44     1     3    2
    45    24    25    1
    46    28    25    1
    47    25    26    1
    48    25    27    2
@<TRIPOS>MOLECULE
UD2
 46 48 0 0 0
SMALL
GASTEIGER

@<TRIPOS>ATOM
      1 P          22.8711   71.9737   -3.3299 P.3     1  UNL1        0.2189
      2 O          23.4880   70.4873   -3.2932 O.3     1  UNL1       -0.4371
      3 O          23.5419   72.7609   -4.3878 O.2     1  UNL1       -0.5170
      4 O          21.2929   71.8921   -3.6406 O.3     1  UNL1       -0.3112
      5 C          20.2925   72.0929   -2.6405 C.3     1  UNL1        0.1811
      6 C          17.9984   71.3411   -5.3066 C.3     1  UNL1        0.2383
      7 C          18.0359   70.0505   -4.4492 C.3     1  UNL1        0.1895
      8 O          16.7825   69.3664   -4.5021 O.3     1  UNL1       -0.3779
      9 C          18.3001   70.6104   -3.0300 C.3     1  UNL1        0.1713
     10 C          18.9056   72.0045   -3.2819 C.3     1  UNL1        0.1764
     11 O          19.0133   72.1735   -4.7044 O.3     1  UNL1       -0.3308
     12 O          17.0763   70.7204   -2.3013 O.3     1  UNL1       -0.3794
     13 H          16.7563   68.5521   -3.9818 H       1  UNL1        0.2106
     14 H          16.6217   69.8782   -2.1651 H       1  UNL1        0.2105
     15 N          18.3347   71.0440   -6.7008 N.ar    1  UNL1       -0.2551
     16 C          17.3532   70.7776   -7.5808 C.ar    1  UNL1        0.3323
     17 N          17.6332   70.5011   -8.8682 N.ar    1  UNL1       -0.2743
     18 C          18.9116   70.4891   -9.2973 C.ar    1  UNL1        0.2626
     19 C          19.9547   70.7688   -8.3820 C.ar    1  UNL1        0.0795
     20 C          19.6447   71.0469   -7.0982 C.ar    1  UNL1        0.0869
     21 O          16.1959   70.7851   -7.2080 O.2     1  UNL1       -0.2464
     22 O          19.1663   70.2394  -10.4623 O.2     1  UNL1       -0.2670
     23 H          16.9135   70.3100   -9.4893 H       1  UNL1        0.1734
     24 O          23.1004   72.6856   -1.9037 O.3     1  UNL1       -0.2703
     25 P          23.2511   74.2173   -1.4302 P.3     1  UNL1        0.2208
     26 O          24.7141   74.7601   -1.8286 O.3     1  UNL1       -0.4371
     27 O          22.2207   75.0435   -2.0966 O.2     1  UNL1       -0.5170
     28 O          23.0614   74.3065    0.1662 O.3     1  UNL1       -0.2865
     29 C          21.8094   74.0777    0.8154 C.3     1  UNL1        0.2611
     30 C          21.9542   74.3478    2.3150 C.3     1  UNL1        0.1582
     31 C          22.9707   73.3661    2.9060 C.3     1  UNL1        0.1625
     32 C          22.5105   71.9349    2.6157 C.3     1  UNL1        0.1686
     33 C          22.3443   71.7578    1.1041 C.3     1  UNL1        0.1760
     34 O          23.0578   73.5624    4.3192 O.3     1  UNL1       -0.3801
     35 O          21.2612   71.6939    3.2656 O.3     1  UNL1       -0.3794
     36 O          21.4094   72.7207    0.6133 O.3     1  UNL1       -0.3263
     37 H          23.6854   72.9732    4.7598 H       1  UNL1        0.2105
     38 H          20.9085   70.8042    3.1239 H       1  UNL1        0.2105
     39 C          21.6533   76.6005    3.1939 C.2     1  UNL1        0.2231
     40 C          22.1335   78.0121    3.4074 C.3     1  UNL1        0.0946
     41 N          22.4218   75.7207    2.5220 N.am    1  UNL1       -0.2994
     42 O          20.5739   76.2548    3.6270 O.2     1  UNL1       -0.2751
     43 H          23.2845   75.9970    2.1747 H       1  UNL1        0.1496
     44 C          21.8272   70.3484    0.8098 C.3     1  UNL1        0.1693
     45 O          22.9226   69.5037    0.4507 O.3     1  UNL1       -0.3794
     46 H          22.6681   68.5926    0.2500 H       1  UNL1        0.2105
@<TRIPOS>BOND
     1    29    30    1
     2    30    41    1
     3    30    31    1
     4    31    34    1
     5    31    32    1
     6    32    35    1
     7    32    33    1
     8    33    36    1
     9    33    44    1
    10    39    40    1
    11    39    42    2
    12    39    41   am
    13    41    43    1
    14    29    28    1
    15    34    37    1
    16    35    38    1
    17    29    36    1
    18    44    45    1
    19    45    46    1
    20    15     6    1
    21    15    16   ar
    22    16    21    2
    23    16    17   ar
    24    17    23    1
    25    17    18   ar
    26    18    19   ar
    27    19    20   ar
    28    15    20   ar
    29    18    22    2
    30     6     7    1
    31     6    11    1
    32     7     9    1
    33     7     8    1
    34     8    13    1
    35     9    10    1
    36     9    12    1
    37    10     5    1
    38    10    11    1
    39    12    14    1
    40     5     4    1
    41     4     1    1
    42     1     2    1
    43     1    24    1
    44     1     3    2
    45    24    25    1
    46    28    25    1
    47    25    26    1
    48    25    27    2
@<TRIPOS>MOLECULE
UD2
 46 48 0 0 0
SMALL
GASTEIGER

@<TRIPOS>ATOM
      1 P          22.0886   74.0012   -6.3866 P.3     1  UNL1        0.2189
      2 O          22.7178   72.6854   -7.0678 O.3     1  UNL1       -0.4371
      3 O          22.9445   75.1701   -6.6869 O.2     1  UNL1       -0.5170
      4 O          20.6100   74.2540   -6.9727 O.3     1  UNL1       -0.3112
      5 C          20.2850   74.0987   -8.3553 C.3     1  UNL1        0.1811
      6 C          18.1186   71.4902   -7.1558 C.3     1  UNL1        0.2383
      7 C          17.2697   72.7824   -7.0474 C.3     1  UNL1        0.1895
      8 O          15.8815   72.4975   -7.2305 O.3     1  UNL1       -0.3779
      9 C          17.8187   73.6315   -8.2201 C.3     1  UNL1        0.1713
     10 C          19.2052   73.0245   -8.5076 C.3     1  UNL1        0.1764
     11 O          19.4203   71.9760   -7.5496 O.3     1  UNL1       -0.3308
     12 O          16.9717   73.5091   -9.3639 O.3     1  UNL1       -0.3794
     13 H          15.3091   73.2744   -7.1711 H       1  UNL1        0.2106
     14 H          16.0683   73.8220   -9.2206 H       1  UNL1        0.2105
     15 N          18.1913   70.8107   -5.8604 N.ar    1  UNL1       -0.2551
     16 C          17.2940   69.8557   -5.5576 C.ar    1  UNL1        0.3323
     17 N          17.3369   69.2149   -4.3745 N.ar    1  UNL1       -0.2743
     18 C          18.2887   69.5226   -3.4700 C.ar    1  UNL1        0.2626
     19 C          19.2402   70.5251   -3.7760 C.ar    1  UNL1        0.0795
     20 C          19.1761   71.1483   -4.9714 C.ar    1  UNL1        0.0869
     21 O          16.4304   69.5677   -6.3636 O.2     1  UNL1       -0.2464
     22 O          18.3288   68.9431   -2.3990 O.2     1  UNL1       -0.2670
     23 H          16.6815   68.5297   -4.1717 H       1  UNL1        0.1734
     24 O          22.0047   73.7925   -4.7920 O.3     1  UNL1       -0.2703
     25 P          22.8642   72.9411   -3.7293 P.3     1  UNL1        0.2208
     26 O          22.6040   71.3694   -3.9657 O.3     1  UNL1       -0.4371
     27 O          24.3028   73.2350   -3.9095 O.2     1  UNL1       -0.5170
     28 O          22.4173   73.3407   -2.2349 O.3     1  UNL1       -0.2865
     29 C          21.2625   72.7943   -1.5953 C.3     1  UNL1        0.2611
     30 C          20.7983   73.7391   -0.4842 C.3     1  UNL1        0.1582
     31 C          21.9031   73.8547    0.5705 C.3     1  UNL1        0.1625
     32 C          22.2376   72.4572    1.0991 C.3     1  UNL1        0.1686
     33 C          22.6465   71.5616   -0.0734 C.3     1  UNL1        0.1760
     34 O          21.4497   74.6771    1.6482 O.3     1  UNL1       -0.3801
     35 O          21.0902   71.9038    1.7460 O.3     1  UNL1       -0.3794
     36 O          21.5877   71.5217   -1.0321 O.3     1  UNL1       -0.3263
     37 H          22.1008   74.7945    2.3536 H       1  UNL1        0.2105
     38 H          21.2302   71.0166    2.1055 H       1  UNL1        0.2105
     39 C          21.4925   75.9955   -1.0879 C.2     1  UNL1        0.2231
     40 C          21.2090   77.3554   -1.6701 C.3     1  UNL1        0.0946
     41 N          20.5216   75.0617   -1.0505 N.am    1  UNL1       -0.2994
     42 O          22.5957   75.7401   -0.6521 O.2     1  UNL1       -0.2751
     43 H          19.6392   75.2658   -1.3979 H       1  UNL1        0.1496
     44 C          22.9249   70.1471    0.4386 C.3     1  UNL1        0.1693
     45 O          21.6931   69.4331    0.5614 O.3     1  UNL1       -0.3794
     46 H          21.7936   68.5264    0.8820 H       1  UNL1        0.2105
@<TRIPOS>BOND
     1    29    30    1
     2    30    41    1
     3    30    31    1
     4    31    34    1
     5    31    32    1
     6    32    35    1
     7    32    33    1
     8    33    36    1
     9    33    44    1
    10    39    40    1
    11    39    42    2
    12    39    41   am
    13    41    43    1
    14    29    28    1
    15    34    37    1
    16    35    38    1
    17    29    36    1
    18    44    45    1
    19    45    46    1
    20    15     6    1
    21    15    16   ar
    22    16    21    2
    23    16    17   ar
    24    17    23    1
    25    17    18   ar
    26    18    19   ar
    27    19    20   ar
    28    15    20   ar
    29    18    22    2
    30     6     7    1
    31     6    11    1
    32     7     9    1
    33     7     8    1
    34     8    13    1
    35     9    10    1
    36     9    12    1
    37    10     5    1
    38    10    11    1
    39    12    14    1
    40     5     4    1
    41     4     1    1
    42     1     2    1
    43     1    24    1
    44     1     3    2
    45    24    25    1
    46    28    25    1
    47    25    26    1
    48    25    27    2
@<TRIPOS>MOLECULE
UD2
 46 48 0 0 0
SMALL
GASTEIGER

@<TRIPOS>ATOM
      1 P          20.7367   69.9796   -2.5779 P.3     1  UNL1        0.2189
      2 O          19.7119   68.7947   -2.9484 O.3     1  UNL1       -0.4371
      3 O          21.9976   69.7952   -3.3296 O.2     1  UNL1       -0.5170
      4 O          20.0811   71.3977   -2.9689 O.3     1  UNL1       -0.3112
      5 C          18.7966   71.8150   -2.5027 C.3     1  UNL1        0.1811
      6 C          17.8341   72.8235   -5.8183 C.3     1  UNL1        0.2383
      7 C          16.5923   72.0829   -5.2603 C.3     1  UNL1        0.1895
      8 O          15.3882   72.6182   -5.8128 O.3     1  UNL1       -0.3779
      9 C          16.6868   72.3855   -3.7447 C.3     1  UNL1        0.1713
     10 C          18.1651   72.7608   -3.5272 C.3     1  UNL1        0.1764
     11 O          18.8314   72.6259   -4.7927 O.3     1  UNL1       -0.3308
     12 O          15.8364   73.4805   -3.4006 O.3     1  UNL1       -0.3794
     13 H          14.5834   72.1872   -5.4947 H       1  UNL1        0.2106
     14 H          14.8988   73.3207   -3.5730 H       1  UNL1        0.2105
     15 N          18.2675   72.2239   -7.0823 N.ar    1  UNL1       -0.2551
     16 C          17.8090   72.7180   -8.2461 C.ar    1  UNL1        0.3323
     17 N          18.1904   72.1865   -9.4226 N.ar    1  UNL1       -0.2743
     18 C          19.0456   71.1442   -9.4511 C.ar    1  UNL1        0.2626
     19 C          19.5369   70.6147   -8.2336 C.ar    1  UNL1        0.0795
     20 C          19.1411   71.1699   -7.0689 C.ar    1  UNL1        0.0869
     21 O          17.0376   73.6577   -8.2355 O.2     1  UNL1       -0.2464
     22 O          19.3919   70.6624  -10.5153 O.2     1  UNL1       -0.2670
     23 H          17.8493   72.5541  -10.2525 H       1  UNL1        0.1734
     24 O          21.0443   69.9488   -0.9975 O.3     1  UNL1       -0.2703
     25 P          22.1549   70.6436   -0.0611 P.3     1  UNL1        0.2208
     26 O          21.5828   70.7801    1.4382 O.3     1  UNL1       -0.4371
     27 O          23.3789   69.8128   -0.0476 O.2     1  UNL1       -0.5170
     28 O          22.5045   72.1057   -0.6378 O.3     1  UNL1       -0.2865
     29 C          21.7201   73.2644   -0.3489 C.3     1  UNL1        0.2611
     30 C          22.0433   74.3660   -1.3612 C.3     1  UNL1        0.1582
     31 C          23.5181   74.7566   -1.2242 C.3     1  UNL1        0.1625
     32 C          23.7869   75.1963    0.2176 C.3     1  UNL1        0.1686
     33 C          23.3964   74.0624    1.1693 C.3     1  UNL1        0.1760
     34 O          23.8107   75.8356   -2.1150 O.3     1  UNL1       -0.3801
     35 O          23.0111   76.3587    0.5149 O.3     1  UNL1       -0.3794
     36 O          22.0219   73.7269    0.9692 O.3     1  UNL1       -0.3263
     37 H          24.7298   76.1345   -2.0816 H       1  UNL1        0.2105
     38 H          23.1313   76.6930    1.4148 H       1  UNL1        0.2105
     39 C          22.7978   73.3430   -3.4402 C.2     1  UNL1        0.2231
     40 C          22.5395   72.8359   -4.8347 C.3     1  UNL1        0.0946
     41 N          21.7913   73.8731   -2.7177 N.am    1  UNL1       -0.2994
     42 O          23.9128   73.2744   -2.9664 O.2     1  UNL1       -0.2751
     43 H          20.8999   73.9291   -3.0965 H       1  UNL1        0.1496
     44 C          23.6058   74.5158    2.6153 C.3     1  UNL1        0.1693
     45 O          24.7901   75.3112    2.6992 O.3     1  UNL1       -0.3794
     46 H          24.9857   75.6339    3.5895 H       1  UNL1        0.2105
@<TRIPOS>BOND
     1    29    30    1
     2    30    41    1
     3    30    31    1
     4    31    34    1
     5    31    32    1
     6    32    35    1
     7    32    33    1
     8    33    36    1
     9    33    44    1
    10    39    40    1
    11    39    42    2
    12    39    41   am
    13    41    43    1
    14    29    28    1
    15    34    37    1
    16    35    38    1
    17    29    36    1
    18    44    45    1
    19    45    46    1
    20    15     6    1
    21    15    16   ar
    22    16    21    2
    23    16    17   ar
    24    17    23    1
    25    17    18   ar
    26    18    19   ar
    27    19    20   ar
    28    15    20   ar
    29    18    22    2
    30     6     7    1
    31     6    11    1
    32     7     9    1
    33     7     8    1
    34     8    13    1
    35     9    10    1
    36     9    12    1
    37    10     5    1
    38    10    11    1
    39    12    14    1
    40     5     4    1
    41     4     1    1
    42     1     2    1
    43     1    24    1
    44     1     3    2
    45    24    25    1
    46    28    25    1
    47    25    26    1
    48    25    27    2
@<TRIPOS>MOLECULE
UD2
 46 48 0 0 0
SMALL
GASTEIGER

@<TRIPOS>ATOM
      1 P          22.3170   70.8790   -2.3967 P.3     1  UNL1        0.2189
      2 O          22.6820   70.3618   -0.9166 O.3     1  UNL1       -0.4371
      3 O          23.5266   70.8355   -3.2474 O.2     1  UNL1       -0.5170
      4 O          21.1801   69.9309   -3.0311 O.3     1  UNL1       -0.3112
      5 C          19.8137   69.9714   -2.6157 C.3     1  UNL1        0.1811
      6 C          18.4579   71.6116   -5.5154 C.3     1  UNL1        0.2383
      7 C          17.2711   70.8006   -4.9358 C.3     1  UNL1        0.1895
      8 O          16.0284   71.4533   -5.2033 O.3     1  UNL1       -0.3779
      9 C          17.5829   70.8065   -3.4192 C.3     1  UNL1        0.1713
     10 C          19.0923   71.1066   -3.3463 C.3     1  UNL1        0.1764
     11 O          19.5749   71.2038   -4.6958 O.3     1  UNL1       -0.3308
     12 O          16.8364   71.8310   -2.7604 O.3     1  UNL1       -0.3794
     13 H          15.2557   70.9841   -4.8608 H       1  UNL1        0.2106
     14 H          15.8779   71.7239   -2.8255 H       1  UNL1        0.2105
     15 N          18.6895   71.2566   -6.9173 N.ar    1  UNL1       -0.2551
     16 C          17.6956   70.7086   -7.6389 C.ar    1  UNL1        0.3323
     17 N          17.8803   70.3723   -8.9293 N.ar    1  UNL1       -0.2743
     18 C          19.0733   70.5835   -9.5216 C.ar    1  UNL1        0.2626
     19 C          20.1280   71.1605   -8.7742 C.ar    1  UNL1        0.0795
     20 C          19.9135   71.4918   -7.4835 C.ar    1  UNL1        0.0869
     21 O          16.6146   70.5126   -7.1179 O.2     1  UNL1       -0.2464
     22 O          19.2416   70.2799  -10.6895 O.2     1  UNL1       -0.2670
     23 H          17.1534   69.9770   -9.4347 H       1  UNL1        0.1734
     24 O          21.7704   72.3917   -2.3173 O.3     1  UNL1       -0.2703
     25 P          22.3159   73.7429   -1.6319 P.3     1  UNL1        0.2208
     26 O          23.9069   73.8531   -1.8559 O.3     1  UNL1       -0.4371
     27 O          21.6497   74.9119   -2.2467 O.2     1  UNL1       -0.5170
     28 O          21.9965   73.7110   -0.0541 O.3     1  UNL1       -0.2865
     29 C          20.8245   73.1019    0.4908 C.3     1  UNL1        0.2611
     30 C          19.8928   74.1856    1.0387 C.3     1  UNL1        0.1582
     31 C          20.6015   74.9294    2.1749 C.3     1  UNL1        0.1625
     32 C          21.0152   73.9214    3.2506 C.3     1  UNL1        0.1686
     33 C          21.9039   72.8476    2.6172 C.3     1  UNL1        0.1760
     34 O          19.7120   75.8944    2.7414 O.3     1  UNL1       -0.3801
     35 O          19.8494   73.3104    3.8063 O.3     1  UNL1       -0.3794
     36 O          21.1966   72.2158    1.5484 O.3     1  UNL1       -0.3263
     37 H          20.0962   76.4041    3.4678 H       1  UNL1        0.2105
     38 H          20.0370   72.6582    4.4958 H       1  UNL1        0.2105
     39 C          18.2935   75.5756   -0.1646 C.2     1  UNL1        0.2231
     40 C          17.9486   76.5462   -1.2635 C.3     1  UNL1        0.0946
     41 N          19.5581   75.1296   -0.0306 N.am    1  UNL1       -0.2994
     42 O          17.4325   75.1946    0.6008 O.2     1  UNL1       -0.2751
     43 H          20.2466   75.4332   -0.6429 H       1  UNL1        0.1496
     44 C          22.2728   71.8035    3.6727 C.3     1  UNL1        0.1693
     45 O          22.0929   72.3594    4.9770 O.3     1  UNL1       -0.3794
     46 H          22.3087   71.7516    5.6974 H       1  UNL1        0.2105
@<TRIPOS>BOND
     1    29    30    1
     2    30    41    1
     3    30    31    1
     4    31    34    1
     5    31    32    1
     6    32    35    1
     7    32    33    1
     8    33    36    1
     9    33    44    1
    10    39    40    1
    11    39    42    2
    12    39    41   am
    13    41    43    1
    14    29    28    1
    15    34    37    1
    16    35    38    1
    17    29    36    1
    18    44    45    1
    19    45    46    1
    20    15     6    1
    21    15    16   ar
    22    16    21    2
    23    16    17   ar
    24    17    23    1
    25    17    18   ar
    26    18    19   ar
    27    19    20   ar
    28    15    20   ar
    29    18    22    2
    30     6     7    1
    31     6    11    1
    32     7     9    1
    33     7     8    1
    34     8    13    1
    35     9    10    1
    36     9    12    1
    37    10     5    1
    38    10    11    1
    39    12    14    1
    40     5     4    1
    41     4     1    1
    42     1     2    1
    43     1    24    1
    44     1     3    2
    45    24    25    1
    46    28    25    1
    47    25    26    1
    48    25    27    2
@<TRIPOS>MOLECULE
UD2
 46 48 0 0 0
SMALL
GASTEIGER

@<TRIPOS>ATOM
      1 P          21.9195   70.8187   -0.3577 P.3     1  UNL1        0.2189
      2 O          21.6222   69.5144    0.5377 O.3     1  UNL1       -0.4371
      3 O          23.0576   70.5472   -1.2633 O.2     1  UNL1       -0.5170
      4 O          20.6143   71.1799   -1.2294 O.3     1  UNL1       -0.3112
      5 C          20.6799   71.5665   -2.6033 C.3     1  UNL1        0.1811
      6 C          18.2009   71.2060   -5.1842 C.3     1  UNL1        0.2383
      7 C          18.1453   69.8697   -4.4011 C.3     1  UNL1        0.1895
      8 O          16.8274   69.3182   -4.4262 O.3     1  UNL1       -0.3779
      9 C          18.5304   70.3155   -2.9692 C.3     1  UNL1        0.1713
     10 C          19.2632   71.6548   -3.1761 C.3     1  UNL1        0.1764
     11 O          19.3222   71.8961   -4.5909 O.3     1  UNL1       -0.3308
     12 O          17.3590   70.5035   -2.1733 O.3     1  UNL1       -0.3794
     13 H          16.7419   68.4812   -3.9501 H       1  UNL1        0.2106
     14 H          16.8274   69.7043   -2.0596 H       1  UNL1        0.2105
     15 N          18.4406   70.9600   -6.6079 N.ar    1  UNL1       -0.2551
     16 C          17.3972   70.8032   -7.4420 C.ar    1  UNL1        0.3323
     17 N          17.5880   70.5758   -8.7551 N.ar    1  UNL1       -0.2743
     18 C          18.8377   70.5033   -9.2568 C.ar    1  UNL1        0.2626
     19 C          19.9452   70.6675   -8.3904 C.ar    1  UNL1        0.0795
     20 C          19.7244   70.8986   -7.0791 C.ar    1  UNL1        0.0869
     21 O          16.2649   70.8663   -7.0036 O.2     1  UNL1       -0.2464
     22 O          19.0118   70.2979  -10.4450 O.2     1  UNL1       -0.2670
     23 H          16.8247   70.4638   -9.3423 H       1  UNL1        0.1734
     24 O          22.2821   72.0588    0.6035 O.3     1  UNL1       -0.2703
     25 P          21.4530   72.9111    1.6894 P.3     1  UNL1        0.2208
     26 O          20.2650   73.7093    0.9509 O.3     1  UNL1       -0.4371
     27 O          20.8782   71.9967    2.7002 O.2     1  UNL1       -0.5170
     28 O          22.4369   73.9608    2.4123 O.3     1  UNL1       -0.2865
     29 C          23.1208   73.6730    3.6333 C.3     1  UNL1        0.2611
     30 C          22.5060   74.4938    4.7694 C.3     1  UNL1        0.1582
     31 C          22.6946   75.9844    4.4709 C.3     1  UNL1        0.1625
     32 C          24.1873   76.2726    4.2886 C.3     1  UNL1        0.1686
     33 C          24.7374   75.3830    3.1706 C.3     1  UNL1        0.1760
     34 O          22.1887   76.7572    5.5618 O.3     1  UNL1       -0.3801
     35 O          24.8799   75.9932    5.5065 O.3     1  UNL1       -0.3794
     36 O          24.5025   74.0116    3.4961 O.3     1  UNL1       -0.3263
     37 H          22.2751   77.7127    5.4398 H       1  UNL1        0.2105
     38 H          25.8331   76.1532    5.4633 H       1  UNL1        0.2105
     39 C          20.5064   74.0326    6.0834 C.2     1  UNL1        0.2231
     40 C          19.0363   73.7228    6.1904 C.3     1  UNL1        0.0946
     41 N          21.0759   74.1922    4.8726 N.am    1  UNL1       -0.2994
     42 O          21.1787   74.1386    7.0879 O.2     1  UNL1       -0.2751
     43 H          20.5390   74.1066    4.0693 H       1  UNL1        0.1496
     44 C          26.2412   75.6219    3.0224 C.3     1  UNL1        0.1693
     45 O          26.5608   75.8093    1.6422 O.3     1  UNL1       -0.3794
     46 H          27.4999   75.9662    1.4731 H       1  UNL1        0.2105
@<TRIPOS>BOND
     1    29    30    1
     2    30    41    1
     3    30    31    1
     4    31    34    1
     5    31    32    1
     6    32    35    1
     7    32    33    1
     8    33    36    1
     9    33    44    1
    10    39    40    1
    11    39    42    2
    12    39    41   am
    13    41    43    1
    14    29    28    1
    15    34    37    1
    16    35    38    1
    17    29    36    1
    18    44    45    1
    19    45    46    1
    20    15     6    1
    21    15    16   ar
    22    16    21    2
    23    16    17   ar
    24    17    23    1
    25    17    18   ar
    26    18    19   ar
    27    19    20   ar
    28    15    20   ar
    29    18    22    2
    30     6     7    1
    31     6    11    1
    32     7     9    1
    33     7     8    1
    34     8    13    1
    35     9    10    1
    36     9    12    1
    37    10     5    1
    38    10    11    1
    39    12    14    1
    40     5     4    1
    41     4     1    1
    42     1     2    1
    43     1    24    1
    44     1     3    2
    45    24    25    1
    46    28    25    1
    47    25    26    1
    48    25    27    2
@<TRIPOS>MOLECULE
UD2
 46 48 0 0 0
SMALL
GASTEIGER

@<TRIPOS>ATOM
      1 P          21.8973   70.7036   -0.4902 P.3     1  UNL1        0.2189
      2 O          21.5307   69.4535    0.4554 O.3     1  UNL1       -0.4371
      3 O          22.9814   70.3182   -1.4203 O.2     1  UNL1       -0.5170
      4 O          20.5959   71.1383   -1.3334 O.3     1  UNL1       -0.3112
      5 C          20.6584   71.5593   -2.6973 C.3     1  UNL1        0.1811
      6 C          18.1866   71.1663   -5.2804 C.3     1  UNL1        0.2383
      7 C          18.1391   69.8342   -4.4896 C.3     1  UNL1        0.1895
      8 O          16.8252   69.2732   -4.5138 O.3     1  UNL1       -0.3779
      9 C          18.5185   70.2911   -3.0597 C.3     1  UNL1        0.1713
     10 C          19.2422   71.6343   -3.2731 C.3     1  UNL1        0.1764
     11 O          19.3020   71.8677   -4.6892 O.3     1  UNL1       -0.3308
     12 O          17.3444   70.4754   -2.2669 O.3     1  UNL1       -0.3794
     13 H          16.7447   68.4384   -4.0329 H       1  UNL1        0.2106
     14 H          16.8182   69.6731   -2.1495 H       1  UNL1        0.2105
     15 N          18.4306   70.9137   -6.7022 N.ar    1  UNL1       -0.2551
     16 C          17.3898   70.7623   -7.5404 C.ar    1  UNL1        0.3323
     17 N          17.5845   70.5290   -8.8518 N.ar    1  UNL1       -0.2743
     18 C          18.8358   70.4450   -9.3478 C.ar    1  UNL1        0.2626
     19 C          19.9407   70.6035   -8.4770 C.ar    1  UNL1        0.0795
     20 C          19.7160   70.8406   -7.1675 C.ar    1  UNL1        0.0869
     21 O          16.2561   70.8357   -7.1071 O.2     1  UNL1       -0.2464
     22 O          19.0134   70.2344  -10.5346 O.2     1  UNL1       -0.2670
     23 H          16.8229   70.4211   -9.4421 H       1  UNL1        0.1734
     24 O          22.3843   71.9402    0.4193 O.3     1  UNL1       -0.2703
     25 P          21.7368   72.7401    1.6578 P.3     1  UNL1        0.2208
     26 O          20.6681   73.8105    1.1048 O.3     1  UNL1       -0.4371
     27 O          21.0564   71.7856    2.5602 O.2     1  UNL1       -0.5170
     28 O          22.8981   73.5088    2.4660 O.3     1  UNL1       -0.2865
     29 C          22.7732   74.8611    2.9100 C.3     1  UNL1        0.2611
     30 C          24.1278   75.3588    3.4200 C.3     1  UNL1        0.1582
     31 C          24.5532   74.5116    4.6232 C.3     1  UNL1        0.1625
     32 C          23.4650   74.5873    5.6976 C.3     1  UNL1        0.1686
     33 C          22.1356   74.1191    5.0996 C.3     1  UNL1        0.1760
     34 O          25.7819   75.0161    5.1515 O.3     1  UNL1       -0.3801
     35 O          23.3361   75.9354    6.1528 O.3     1  UNL1       -0.3794
     36 O          21.8135   74.9283    3.9667 O.3     1  UNL1       -0.3263
     37 H          26.1114   74.5254    5.9169 H       1  UNL1        0.2105
     38 H          22.6620   76.0579    6.8358 H       1  UNL1        0.2105
     39 C          25.8088   76.3206    1.9412 C.2     1  UNL1        0.2231
     40 C          26.8365   76.1936    0.8474 C.3     1  UNL1        0.0946
     41 N          25.1271   75.2346    2.3558 N.am    1  UNL1       -0.2994
     42 O          25.5942   77.4011    2.4498 O.2     1  UNL1       -0.2751
     43 H          25.2976   74.3707    1.9488 H       1  UNL1        0.1496
     44 C          21.0307   74.2482    6.1497 C.3     1  UNL1        0.1693
     45 O          19.9479   73.3786    5.8124 O.3     1  UNL1       -0.3794
     46 H          19.2098   73.4083    6.4363 H       1  UNL1        0.2105
@<TRIPOS>BOND
     1    29    30    1
     2    30    41    1
     3    30    31    1
     4    31    34    1
     5    31    32    1
     6    32    35    1
     7    32    33    1
     8    33    36    1
     9    33    44    1
    10    39    40    1
    11    39    42    2
    12    39    41   am
    13    41    43    1
    14    29    28    1
    15    34    37    1
    16    35    38    1
    17    29    36    1
    18    44    45    1
    19    45    46    1
    20    15     6    1
    21    15    16   ar
    22    16    21    2
    23    16    17   ar
    24    17    23    1
    25    17    18   ar
    26    18    19   ar
    27    19    20   ar
    28    15    20   ar
    29    18    22    2
    30     6     7    1
    31     6    11    1
    32     7     9    1
    33     7     8    1
    34     8    13    1
    35     9    10    1
    36     9    12    1
    37    10     5    1
    38    10    11    1
    39    12    14    1
    40     5     4    1
    41     4     1    1
    42     1     2    1
    43     1    24    1
    44     1     3    2
    45    24    25    1
    46    28    25    1
    47    25    26    1
    48    25    27    2
@<TRIPOS>MOLECULE
UD2
 46 48 0 0 0
SMALL
GASTEIGER

@<TRIPOS>ATOM
      1 P          22.0046   70.4271   -0.2448 P.3     1  UNL1        0.2189
      2 O          22.6074   69.1278    0.4899 O.3     1  UNL1       -0.4371
      3 O          23.0970   71.1679   -0.9132 O.2     1  UNL1       -0.5170
      4 O          20.9182   69.9678   -1.3413 O.3     1  UNL1       -0.3112
      5 C          21.0167   70.3118   -2.7245 C.3     1  UNL1        0.1811
      6 C          18.4760   70.9307   -5.1940 C.3     1  UNL1        0.2383
      7 C          18.0596   69.5919   -4.5335 C.3     1  UNL1        0.1895
      8 O          16.6388   69.4404   -4.5394 O.3     1  UNL1       -0.3779
      9 C          18.5909   69.7626   -3.0892 C.3     1  UNL1        0.1713
     10 C          19.6710   70.8543   -3.2119 C.3     1  UNL1        0.1764
     11 O          19.7621   71.2120   -4.6002 O.3     1  UNL1       -0.3308
     12 O          17.5421   70.1916   -2.2193 O.3     1  UNL1       -0.3794
     13 H          16.3290   68.6176   -4.1374 H       1  UNL1        0.2106
     14 H          16.8069   69.5676   -2.1509 H       1  UNL1        0.2105
     15 N          18.6006   70.7734   -6.6448 N.ar    1  UNL1       -0.2551
     16 C          17.4956   70.7645   -7.4114 C.ar    1  UNL1        0.3323
     17 N          17.5803   70.6213   -8.7473 N.ar    1  UNL1       -0.2743
     18 C          18.7838   70.4856   -9.3404 C.ar    1  UNL1        0.2626
     19 C          19.9553   70.4942   -8.5456 C.ar    1  UNL1        0.0795
     20 C          19.8410   70.6436   -7.2091 C.ar    1  UNL1        0.0869
     21 O          16.4038   70.8861   -6.8902 O.2     1  UNL1       -0.2464
     22 O          18.8619   70.3563  -10.5494 O.2     1  UNL1       -0.2670
     23 H          16.7735   70.6159   -9.2851 H       1  UNL1        0.1734
     24 O          21.2974   71.3799    0.8440 O.3     1  UNL1       -0.2703
     25 P          21.8332   72.2264    2.1046 P.3     1  UNL1        0.2208
     26 O          20.5860   72.6692    3.0223 O.3     1  UNL1       -0.4371
     27 O          22.7596   71.3925    2.9014 O.2     1  UNL1       -0.5170
     28 O          22.6067   73.5378    1.5807 O.3     1  UNL1       -0.2865
     29 C          22.4466   74.8263    2.1769 C.3     1  UNL1        0.2611
     30 C          23.1458   75.8794    1.3139 C.3     1  UNL1        0.1582
     31 C          24.6458   75.5728    1.2649 C.3     1  UNL1        0.1625
     32 C          25.1952   75.5351    2.6936 C.3     1  UNL1        0.1686
     33 C          24.4168   74.4949    3.5035 C.3     1  UNL1        0.1760
     34 O          25.3173   76.5927    0.5217 O.3     1  UNL1       -0.3801
     35 O          25.0450   76.8213    3.2972 O.3     1  UNL1       -0.3794
     36 O          23.0258   74.8215    3.4834 O.3     1  UNL1       -0.3263
     37 H          26.2727   76.4616    0.4495 H       1  UNL1        0.2105
     38 H          25.3723   76.8705    4.2063 H       1  UNL1        0.2105
     39 C          23.1654   75.0662   -0.9830 C.2     1  UNL1        0.2231
     40 C          22.5989   75.0299   -2.3781 C.3     1  UNL1        0.0946
     41 N          22.5943   75.8448   -0.0430 N.am    1  UNL1       -0.2994
     42 O          24.1366   74.3942   -0.7048 O.2     1  UNL1       -0.2751
     43 H          21.8185   76.3830   -0.2652 H       1  UNL1        0.1496
     44 C          24.9198   74.4932    4.9483 C.3     1  UNL1        0.1693
     45 O          26.3227   74.7651    4.9654 O.3     1  UNL1       -0.3794
     46 H          26.7103   74.7795    5.8512 H       1  UNL1        0.2105
@<TRIPOS>BOND
     1    29    30    1
     2    30    41    1
     3    30    31    1
     4    31    34    1
     5    31    32    1
     6    32    35    1
     7    32    33    1
     8    33    36    1
     9    33    44    1
    10    39    40    1
    11    39    42    2
    12    39    41   am
    13    41    43    1
    14    29    28    1
    15    34    37    1
    16    35    38    1
    17    29    36    1
    18    44    45    1
    19    45    46    1
    20    15     6    1
    21    15    16   ar
    22    16    21    2
    23    16    17   ar
    24    17    23    1
    25    17    18   ar
    26    18    19   ar
    27    19    20   ar
    28    15    20   ar
    29    18    22    2
    30     6     7    1
    31     6    11    1
    32     7     9    1
    33     7     8    1
    34     8    13    1
    35     9    10    1
    36     9    12    1
    37    10     5    1
    38    10    11    1
    39    12    14    1
    40     5     4    1
    41     4     1    1
    42     1     2    1
    43     1    24    1
    44     1     3    2
    45    24    25    1
    46    28    25    1
    47    25    26    1
    48    25    27    2
@<TRIPOS>MOLECULE
UD2
 46 48 0 0 0
SMALL
GASTEIGER

@<TRIPOS>ATOM
      1 P          22.8549   72.1535   -3.2336 P.3     1  UNL1        0.2189
      2 O          23.4952   70.6784   -3.1602 O.3     1  UNL1       -0.4371
      3 O          23.5327   72.9341   -4.2920 O.2     1  UNL1       -0.5170
      4 O          21.2845   72.0405   -3.5724 O.3     1  UNL1       -0.3112
      5 C          20.2724   72.0089   -2.5644 C.3     1  UNL1        0.1811
      6 C          17.9874   71.3761   -5.2690 C.3     1  UNL1        0.2383
      7 C          17.9504   70.0821   -4.4168 C.3     1  UNL1        0.1895
      8 O          16.6670   69.4583   -4.4921 O.3     1  UNL1       -0.3779
      9 C          18.2184   70.6237   -2.9912 C.3     1  UNL1        0.1713
     10 C          18.8930   71.9885   -3.2277 C.3     1  UNL1        0.1764
     11 O          19.0309   72.1573   -4.6475 O.3     1  UNL1       -0.3308
     12 O          16.9899   70.7888   -2.2811 O.3     1  UNL1       -0.3794
     13 H          16.5942   68.6442   -3.9757 H       1  UNL1        0.2106
     14 H          16.4940   69.9686   -2.1555 H       1  UNL1        0.2105
     15 N          18.3310   71.0685   -6.6591 N.ar    1  UNL1       -0.2551
     16 C          17.3531   70.8159   -7.5471 C.ar    1  UNL1        0.3323
     17 N          17.6399   70.5302   -8.8310 N.ar    1  UNL1       -0.2743
     18 C          18.9217   70.4948   -9.2484 C.ar    1  UNL1        0.2626
     19 C          19.9612   70.7597   -8.3246 C.ar    1  UNL1        0.0795
     20 C          19.6445   71.0475   -7.0446 C.ar    1  UNL1        0.0869
     21 O          16.1928   70.8445   -7.1848 O.2     1  UNL1       -0.2464
     22 O          19.1827   70.2367  -10.4102 O.2     1  UNL1       -0.2670
     23 H          16.9227   70.3493   -9.4579 H       1  UNL1        0.1734
     24 O          23.0455   72.8927   -1.8156 O.3     1  UNL1       -0.2703
     25 P          22.8963   74.4179   -1.3211 P.3     1  UNL1        0.2208
     26 O          24.2813   75.2007   -1.5716 O.3     1  UNL1       -0.4371
     27 O          21.8124   75.0791   -2.0803 O.2     1  UNL1       -0.5170
     28 O          22.5430   74.4405    0.2497 O.3     1  UNL1       -0.2865
     29 C          23.3192   73.7524    1.2321 C.3     1  UNL1        0.2611
     30 C          22.4788   72.6366    1.8580 C.3     1  UNL1        0.1582
     31 C          21.2718   73.2560    2.5691 C.3     1  UNL1        0.1625
     32 C          21.7677   74.2629    3.6105 C.3     1  UNL1        0.1686
     33 C          22.6357   75.3163    2.9169 C.3     1  UNL1        0.1760
     34 O          20.5212   72.2275    3.2188 O.3     1  UNL1       -0.3801
     35 O          22.5408   73.5835    4.6015 O.3     1  UNL1       -0.3794
     36 O          23.7223   74.6715    2.2495 O.3     1  UNL1       -0.3263
     37 H          19.7401   72.5490    3.6896 H       1  UNL1        0.2105
     38 H          22.8887   74.1618    5.2947 H       1  UNL1        0.2105
     39 C          22.4335   70.4454    0.7929 C.2     1  UNL1        0.2231
     40 C          21.9565   69.5088   -0.2858 C.3     1  UNL1        0.0946
     41 N          22.0146   71.7262    0.8082 N.am    1  UNL1       -0.2994
     42 O          23.1955   70.0471    1.6490 O.2     1  UNL1       -0.2751
     43 H          21.4061   72.0453    0.1234 H       1  UNL1        0.1496
     44 C          23.1841   76.2920    3.9598 C.3     1  UNL1        0.1693
     45 O          24.4437   75.8182    4.4406 O.3     1  UNL1       -0.3794
     46 H          24.8510   76.3888    5.1065 H       1  UNL1        0.2105
@<TRIPOS>BOND
     1    29    30    1
     2    30    41    1
     3    30    31    1
     4    31    34    1
     5    31    32    1
     6    32    35    1
     7    32    33    1
     8    33    36    1
     9    33    44    1
    10    39    40    1
    11    39    42    2
    12    39    41   am
    13    41    43    1
    14    29    28    1
    15    34    37    1
    16    35    38    1
    17    29    36    1
    18    44    45    1
    19    45    46    1
    20    15     6    1
    21    15    16   ar
    22    16    21    2
    23    16    17   ar
    24    17    23    1
    25    17    18   ar
    26    18    19   ar
    27    19    20   ar
    28    15    20   ar
    29    18    22    2
    30     6     7    1
    31     6    11    1
    32     7     9    1
    33     7     8    1
    34     8    13    1
    35     9    10    1
    36     9    12    1
    37    10     5    1
    38    10    11    1
    39    12    14    1
    40     5     4    1
    41     4     1    1
    42     1     2    1
    43     1    24    1
    44     1     3    2
    45    24    25    1
    46    28    25    1
    47    25    26    1
    48    25    27    2
@<TRIPOS>MOLECULE
UD2
 46 48 0 0 0
SMALL
GASTEIGER

@<TRIPOS>ATOM
      1 P          23.0281   73.8739   -4.0251 P.3     1  UNL1        0.2189
      2 O          23.8140   75.0459   -4.7998 O.3     1  UNL1       -0.4371
      3 O          23.8973   72.6812   -3.9213 O.2     1  UNL1       -0.5170
      4 O          22.6315   74.3792   -2.5482 O.3     1  UNL1       -0.3112
      5 C          21.8831   73.5817   -1.6288 C.3     1  UNL1        0.1811
      6 C          23.1106   72.3099    1.5037 C.3     1  UNL1        0.2383
      7 C          22.1632   71.2018    0.9776 C.3     1  UNL1        0.1895
      8 O          22.5977   69.9113    1.4105 O.3     1  UNL1       -0.3779
      9 C          22.3113   71.3486   -0.5567 C.3     1  UNL1        0.1713
     10 C          22.8455   72.7810   -0.7480 C.3     1  UNL1        0.1764
     11 O          22.9323   73.3827    0.5534 O.3     1  UNL1       -0.3308
     12 O          23.2467   70.3940   -1.0612 O.3     1  UNL1       -0.3794
     13 H          22.0366   69.1848    1.1071 H       1  UNL1        0.2106
     14 H          22.9887   69.4740   -0.9145 H       1  UNL1        0.2105
     15 N          22.7095   72.7371    2.8459 N.ar    1  UNL1       -0.2551
     16 C          21.4571   72.4991    3.2745 C.ar    1  UNL1        0.3323
     17 N          21.0611   72.8807    4.5032 N.ar    1  UNL1       -0.2743
     18 C          21.9218   73.5103    5.3287 C.ar    1  UNL1        0.2626
     19 C          23.2435   73.7663    4.8909 C.ar    1  UNL1        0.0795
     20 C          23.6146   73.3688    3.6556 C.ar    1  UNL1        0.0869
     21 O          20.6704   71.9321    2.5410 O.2     1  UNL1       -0.2464
     22 O          21.5648   73.8559    6.4412 O.2     1  UNL1       -0.2670
     23 H          20.1541   72.7024    4.7960 H       1  UNL1        0.1734
     24 O          21.6912   73.4949   -4.8389 O.3     1  UNL1       -0.2703
     25 P          21.3653   73.2340   -6.3941 P.3     1  UNL1        0.2208
     26 O          21.2300   74.6455   -7.1577 O.3     1  UNL1       -0.4371
     27 O          22.4606   72.4475   -7.0027 O.2     1  UNL1       -0.5170
     28 O          19.9828   72.4188   -6.5232 O.3     1  UNL1       -0.2865
     29 C          18.8166   72.7384   -5.7621 C.3     1  UNL1        0.2611
     30 C          17.8919   71.5200   -5.7077 C.3     1  UNL1        0.1582
     31 C          17.4385   71.1700   -7.1284 C.3     1  UNL1        0.1625
     32 C          16.7543   72.3908   -7.7496 C.3     1  UNL1        0.1686
     33 C          17.7232   73.5759   -7.7254 C.3     1  UNL1        0.1760
     34 O          16.5164   70.0788   -7.0798 O.3     1  UNL1       -0.3801
     35 O          15.5829   72.7154   -6.9988 O.3     1  UNL1       -0.3794
     36 O          18.1298   73.8292   -6.3791 O.3     1  UNL1       -0.3263
     37 H          16.1880   69.8031   -7.9466 H       1  UNL1        0.2105
     38 H          15.0983   73.4817   -7.3364 H       1  UNL1        0.2105
     39 C          18.1007   69.7273   -4.0705 C.2     1  UNL1        0.2231
     40 C          18.8419   68.5585   -3.4762 C.3     1  UNL1        0.0946
     41 N          18.6136   70.3834   -5.1300 N.am    1  UNL1       -0.2994
     42 O          17.0411   70.0789   -3.5953 O.2     1  UNL1       -0.2751
     43 H          19.4612   70.1032   -5.5096 H       1  UNL1        0.1496
     44 C          17.0266   74.8155   -8.2899 C.3     1  UNL1        0.1693
     45 O          18.0071   75.7892   -8.6545 O.3     1  UNL1       -0.3794
     46 H          17.6362   76.6036   -9.0209 H       1  UNL1        0.2105
@<TRIPOS>BOND
     1    29    30    1
     2    30    41    1
     3    30    31    1
     4    31    34    1
     5    31    32    1
     6    32    35    1
     7    32    33    1
     8    33    36    1
     9    33    44    1
    10    39    40    1
    11    39    42    2
    12    39    41   am
    13    41    43    1
    14    29    28    1
    15    34    37    1
    16    35    38    1
    17    29    36    1
    18    44    45    1
    19    45    46    1
    20    15     6    1
    21    15    16   ar
    22    16    21    2
    23    16    17   ar
    24    17    23    1
    25    17    18   ar
    26    18    19   ar
    27    19    20   ar
    28    15    20   ar
    29    18    22    2
    30     6     7    1
    31     6    11    1
    32     7     9    1
    33     7     8    1
    34     8    13    1
    35     9    10    1
    36     9    12    1
    37    10     5    1
    38    10    11    1
    39    12    14    1
    40     5     4    1
    41     4     1    1
    42     1     2    1
    43     1    24    1
    44     1     3    2
    45    24    25    1
    46    28    25    1
    47    25    26    1
    48    25    27    2
@<TRIPOS>MOLECULE
UD2
 46 48 0 0 0
SMALL
GASTEIGER

@<TRIPOS>ATOM
      1 P          22.7149   71.6897   -3.1071 P.3     1  UNL1        0.2189
      2 O          22.9874   72.3100   -1.6469 O.3     1  UNL1       -0.4371
      3 O          23.3553   70.3597   -3.2061 O.2     1  UNL1       -0.5170
      4 O          21.1282   71.5400   -3.3388 O.3     1  UNL1       -0.3112
      5 C          20.1636   72.3389   -2.6511 C.3     1  UNL1        0.1811
      6 C          17.9368   71.3773   -5.3068 C.3     1  UNL1        0.2383
      7 C          18.0560   70.1113   -4.4207 C.3     1  UNL1        0.1895
      8 O          16.8511   69.3444   -4.4622 O.3     1  UNL1       -0.3779
      9 C          18.2759   70.7188   -3.0135 C.3     1  UNL1        0.1713
     10 C          18.7886   72.1442   -3.2947 C.3     1  UNL1        0.1764
     11 O          18.8913   72.2885   -4.7202 O.3     1  UNL1       -0.3308
     12 O          17.0442   70.7632   -2.2913 O.3     1  UNL1       -0.3794
     13 H          16.8767   68.5418   -3.9238 H       1  UNL1        0.2106
     14 H          16.6460   69.8959   -2.1376 H       1  UNL1        0.2105
     15 N          18.2984   71.0725   -6.6930 N.ar    1  UNL1       -0.2551
     16 C          17.3371   70.7530   -7.5776 C.ar    1  UNL1        0.3323
     17 N          17.6407   70.4681   -8.8578 N.ar    1  UNL1       -0.2743
     18 C          18.9227   70.5012   -9.2749 C.ar    1  UNL1        0.2626
     19 C          19.9446   70.8371   -8.3546 C.ar    1  UNL1        0.0795
     20 C          19.6111   71.1222   -7.0783 C.ar    1  UNL1        0.0869
     21 O          16.1769   70.7194   -7.2156 O.2     1  UNL1       -0.2464
     22 O          19.1988   70.2440  -10.4334 O.2     1  UNL1       -0.2670
     23 H          16.9355   70.2384   -9.4824 H       1  UNL1        0.1734
     24 O          23.3305   72.6670   -4.2292 O.3     1  UNL1       -0.2703
     25 P          23.3881   74.2662   -4.4090 P.3     1  UNL1        0.2208
     26 O          22.4003   74.9614   -3.3438 O.3     1  UNL1       -0.4371
     27 O          24.7710   74.7392   -4.1801 O.2     1  UNL1       -0.5170
     28 O          22.9276   74.6552   -5.9021 O.3     1  UNL1       -0.2865
     29 C          23.2540   75.9026   -6.5173 C.3     1  UNL1        0.2611
     30 C          21.9730   76.5810   -7.0087 C.3     1  UNL1        0.1582
     31 C          21.3128   75.6971   -8.0714 C.3     1  UNL1        0.1625
     32 C          22.3107   75.4497   -9.2060 C.3     1  UNL1        0.1686
     33 C          23.5790   74.8147   -8.6297 C.3     1  UNL1        0.1760
     34 O          20.1551   76.3569   -8.5888 O.3     1  UNL1       -0.3801
     35 O          22.6395   76.6911   -9.8320 O.3     1  UNL1       -0.3794
     36 O          24.1256   75.6727   -7.6262 O.3     1  UNL1       -0.3263
     37 H          19.6859   75.8525   -9.2675 H       1  UNL1        0.2105
     38 H          23.2696   76.6097  -10.5616 H       1  UNL1        0.2105
     39 C          20.1066   75.8384   -5.6294 C.2     1  UNL1        0.2231
     40 C          19.1607   76.0251   -4.4722 C.3     1  UNL1        0.0946
     41 N          21.0532   76.7635   -5.8831 N.am    1  UNL1       -0.2994
     42 O          20.0167   74.8547   -6.3340 O.2     1  UNL1       -0.2751
     43 H          21.1248   77.5506   -5.3206 H       1  UNL1        0.1496
     44 C          24.6045   74.6191   -9.7479 C.3     1  UNL1        0.1693
     45 O          24.2022   73.5281  -10.5788 O.3     1  UNL1       -0.3794
     46 H          24.8074   73.3464  -11.3107 H       1  UNL1        0.2105
@<TRIPOS>BOND
     1    29    30    1
     2    30    41    1
     3    30    31    1
     4    31    34    1
     5    31    32    1
     6    32    35    1
     7    32    33    1
     8    33    36    1
     9    33    44    1
    10    39    40    1
    11    39    42    2
    12    39    41   am
    13    41    43    1
    14    29    28    1
    15    34    37    1
    16    35    38    1
    17    29    36    1
    18    44    45    1
    19    45    46    1
    20    15     6    1
    21    15    16   ar
    22    16    21    2
    23    16    17   ar
    24    17    23    1
    25    17    18   ar
    26    18    19   ar
    27    19    20   ar
    28    15    20   ar
    29    18    22    2
    30     6     7    1
    31     6    11    1
    32     7     9    1
    33     7     8    1
    34     8    13    1
    35     9    10    1
    36     9    12    1
    37    10     5    1
    38    10    11    1
    39    12    14    1
    40     5     4    1
    41     4     1    1
    42     1     2    1
    43     1    24    1
    44     1     3    2
    45    24    25    1
    46    28    25    1
    47    25    26    1
    48    25    27    2
@<TRIPOS>MOLECULE
UD2
 46 48 0 0 0
SMALL
GASTEIGER

@<TRIPOS>ATOM
      1 P          22.0902   70.8413   -2.7290 P.3     1  UNL1        0.2189
      2 O          23.5443   70.3706   -3.2346 O.3     1  UNL1       -0.4371
      3 O          21.3310   69.6668   -2.2462 O.2     1  UNL1       -0.5170
      4 O          22.2571   71.9028   -1.5293 O.3     1  UNL1       -0.3112
      5 C          21.2363   72.1466   -0.5598 C.3     1  UNL1        0.1811
      6 C          21.7374   74.6632    1.9606 C.3     1  UNL1        0.2383
      7 C          23.1470   74.4252    1.3618 C.3     1  UNL1        0.1895
      8 O          23.9321   75.6178    1.4158 O.3     1  UNL1       -0.3779
      9 C          22.8184   74.0460   -0.1030 C.3     1  UNL1        0.1713
     10 C          21.3488   73.5863   -0.0523 C.3     1  UNL1        0.1764
     11 O          20.9259   73.6557    1.3187 O.3     1  UNL1       -0.3308
     12 O          22.9581   75.1833   -0.9561 O.3     1  UNL1       -0.3794
     13 H          24.8229   75.5194    1.0532 H       1  UNL1        0.2106
     14 H          23.8519   75.5507   -0.9798 H       1  UNL1        0.2105
     15 N          21.7534   74.4658    3.4117 N.ar    1  UNL1       -0.2551
     16 C          21.8204   73.2201    3.9142 C.ar    1  UNL1        0.3323
     17 N          21.8364   73.0092    5.2436 N.ar    1  UNL1       -0.2743
     18 C          21.7870   74.0523    6.0970 C.ar    1  UNL1        0.2626
     19 C          21.7173   75.3690    5.5818 C.ar    1  UNL1        0.0795
     20 C          21.7070   75.5513    4.2446 C.ar    1  UNL1        0.0869
     21 O          21.8657   72.2701    3.1566 O.2     1  UNL1       -0.2464
     22 O          21.8018   73.8628    7.3004 O.2     1  UNL1       -0.2670
     23 H          21.8837   72.1045    5.5891 H       1  UNL1        0.1734
     24 O          21.2951   71.5308   -3.9479 O.3     1  UNL1       -0.2703
     25 P          21.5363   72.8536   -4.8339 P.3     1  UNL1        0.2208
     26 O          21.2954   74.1600   -3.9234 O.3     1  UNL1       -0.4371
     27 O          22.9243   72.8587   -5.3455 O.2     1  UNL1       -0.5170
     28 O          20.5073   72.8649   -6.0723 O.3     1  UNL1       -0.2865
     29 C          20.0924   71.6778   -6.7505 C.3     1  UNL1        0.2611
     30 C          19.9925   71.9554   -8.2524 C.3     1  UNL1        0.1582
     31 C          18.9250   73.0269   -8.4949 C.3     1  UNL1        0.1625
     32 C          17.5956   72.5508   -7.9030 C.3     1  UNL1        0.1686
     33 C          17.7879   72.2502   -6.4142 C.3     1  UNL1        0.1760
     34 O          18.7731   73.2397   -9.9002 O.3     1  UNL1       -0.3801
     35 O          17.1687   71.3666   -8.5786 O.3     1  UNL1       -0.3794
     36 O          18.8151   71.2693   -6.2567 O.3     1  UNL1       -0.3263
     37 H          18.1119   73.9079  -10.1272 H       1  UNL1        0.2105
     38 H          16.3309   71.0079   -8.2538 H       1  UNL1        0.2105
     39 C          21.5404   73.7539   -8.8069 C.2     1  UNL1        0.2231
     40 C          22.8700   74.2443   -9.3171 C.3     1  UNL1        0.0946
     41 N          21.2860   72.4317   -8.7490 N.am    1  UNL1       -0.2994
     42 O          20.6975   74.5492   -8.4477 O.2     1  UNL1       -0.2751
     43 H          21.9593   71.7955   -9.0370 H       1  UNL1        0.1496
     44 C          16.4790   71.7171   -5.8285 C.3     1  UNL1        0.1693
     45 O          16.4835   70.2887   -5.8726 O.3     1  UNL1       -0.3794
     46 H          15.6821   69.8811   -5.5166 H       1  UNL1        0.2105
@<TRIPOS>BOND
     1    29    30    1
     2    30    41    1
     3    30    31    1
     4    31    34    1
     5    31    32    1
     6    32    35    1
     7    32    33    1
     8    33    36    1
     9    33    44    1
    10    39    40    1
    11    39    42    2
    12    39    41   am
    13    41    43    1
    14    29    28    1
    15    34    37    1
    16    35    38    1
    17    29    36    1
    18    44    45    1
    19    45    46    1
    20    15     6    1
    21    15    16   ar
    22    16    21    2
    23    16    17   ar
    24    17    23    1
    25    17    18   ar
    26    18    19   ar
    27    19    20   ar
    28    15    20   ar
    29    18    22    2
    30     6     7    1
    31     6    11    1
    32     7     9    1
    33     7     8    1
    34     8    13    1
    35     9    10    1
    36     9    12    1
    37    10     5    1
    38    10    11    1
    39    12    14    1
    40     5     4    1
    41     4     1    1
    42     1     2    1
    43     1    24    1
    44     1     3    2
    45    24    25    1
    46    28    25    1
    47    25    26    1
    48    25    27    2
@<TRIPOS>MOLECULE
UD2
 46 48 0 0 0
SMALL
GASTEIGER

@<TRIPOS>ATOM
      1 P          22.2891   71.1048   -2.3669 P.3     1  UNL1        0.2189
      2 O          23.5401   70.5568   -3.2189 O.3     1  UNL1       -0.4371
      3 O          21.6439   69.9787   -1.6566 O.2     1  UNL1       -0.5170
      4 O          22.8045   72.1908   -1.2950 O.3     1  UNL1       -0.3112
      5 C          22.1068   73.4081   -1.0251 C.3     1  UNL1        0.1811
      6 C          22.5438   74.1557    2.4658 C.3     1  UNL1        0.2383
      7 C          21.7987   75.3884    1.8936 C.3     1  UNL1        0.1895
      8 O          20.9553   75.9797    2.8839 O.3     1  UNL1       -0.3779
      9 C          20.9576   74.7606    0.7552 C.3     1  UNL1        0.1713
     10 C          21.6765   73.4340    0.4436 C.3     1  UNL1        0.1764
     11 O          22.8328   73.3642    1.2930 O.3     1  UNL1       -0.3308
     12 O          19.6224   74.5141    1.1991 O.3     1  UNL1       -0.3794
     13 H          20.4682   76.7551    2.5740 H       1  UNL1        0.2106
     14 H          19.1422   75.3099    1.4648 H       1  UNL1        0.2105
     15 N          23.7829   74.5648    3.1308 N.ar    1  UNL1       -0.2551
     16 C          24.0062   74.2010    4.4062 C.ar    1  UNL1        0.3323
     17 N          25.1360   74.5630    5.0423 N.ar    1  UNL1       -0.2743
     18 C          26.0679   75.2998    4.4040 C.ar    1  UNL1        0.2626
     19 C          25.8463   75.6890    3.0610 C.ar    1  UNL1        0.0795
     20 C          24.7065   75.3083    2.4466 C.ar    1  UNL1        0.0869
     21 O          23.1748   73.5364    4.9940 O.2     1  UNL1       -0.2464
     22 O          27.0911   75.6279    4.9784 O.2     1  UNL1       -0.2670
     23 H          25.2806   74.2932    5.9623 H       1  UNL1        0.1734
     24 O          21.2245   71.7945   -3.3590 O.3     1  UNL1       -0.2703
     25 P          21.3543   72.6681   -4.7054 P.3     1  UNL1        0.2208
     26 O          20.9379   74.1931   -4.3974 O.3     1  UNL1       -0.4371
     27 O          22.7522   72.6269   -5.1877 O.2     1  UNL1       -0.5170
     28 O          20.3786   72.0625   -5.8341 O.3     1  UNL1       -0.2865
     29 C          19.2174   72.7468   -6.3081 C.3     1  UNL1        0.2611
     30 C          17.9615   72.0163   -5.8269 C.3     1  UNL1        0.1582
     31 C          17.9437   70.6042   -6.4203 C.3     1  UNL1        0.1625
     32 C          18.0089   70.7027   -7.9468 C.3     1  UNL1        0.1686
     33 C          19.2635   71.4840   -8.3464 C.3     1  UNL1        0.1760
     34 O          16.7378   69.9401   -6.0356 O.3     1  UNL1       -0.3801
     35 O          16.8486   71.3809   -8.4317 O.3     1  UNL1       -0.3794
     36 O          19.2323   72.7761   -7.7368 O.3     1  UNL1       -0.3263
     37 H          16.6598   69.0385   -6.3765 H       1  UNL1        0.2105
     38 H          16.8235   71.4801   -9.3938 H       1  UNL1        0.2105
     39 C          16.9266   72.3950   -3.6536 C.2     1  UNL1        0.2231
     40 C          16.9388   72.3092   -2.1499 C.3     1  UNL1        0.0946
     41 N          17.9742   71.9328   -4.3643 N.am    1  UNL1       -0.2994
     42 O          15.9733   72.8805   -4.2259 O.2     1  UNL1       -0.2751
     43 H          18.7370   71.5454   -3.9070 H       1  UNL1        0.1496
     44 C          19.3048   71.6384   -9.8679 C.3     1  UNL1        0.1693
     45 O          18.7371   70.4788  -10.4807 O.3     1  UNL1       -0.3794
     46 H          18.7303   70.5075  -11.4472 H       1  UNL1        0.2105
@<TRIPOS>BOND
     1    29    30    1
     2    30    41    1
     3    30    31    1
     4    31    34    1
     5    31    32    1
     6    32    35    1
     7    32    33    1
     8    33    36    1
     9    33    44    1
    10    39    40    1
    11    39    42    2
    12    39    41   am
    13    41    43    1
    14    29    28    1
    15    34    37    1
    16    35    38    1
    17    29    36    1
    18    44    45    1
    19    45    46    1
    20    15     6    1
    21    15    16   ar
    22    16    21    2
    23    16    17   ar
    24    17    23    1
    25    17    18   ar
    26    18    19   ar
    27    19    20   ar
    28    15    20   ar
    29    18    22    2
    30     6     7    1
    31     6    11    1
    32     7     9    1
    33     7     8    1
    34     8    13    1
    35     9    10    1
    36     9    12    1
    37    10     5    1
    38    10    11    1
    39    12    14    1
    40     5     4    1
    41     4     1    1
    42     1     2    1
    43     1    24    1
    44     1     3    2
    45    24    25    1
    46    28    25    1
    47    25    26    1
    48    25    27    2
@<TRIPOS>MOLECULE
UD2
 46 48 0 0 0
SMALL
GASTEIGER

@<TRIPOS>ATOM
      1 P          21.2791   70.6530   -2.5910 P.3     1  UNL1        0.2189
      2 O          21.0710   69.1316   -3.0739 O.3     1  UNL1       -0.4371
      3 O          19.9636   71.2612   -2.2937 O.2     1  UNL1       -0.5170
      4 O          22.1926   70.6748   -1.2648 O.3     1  UNL1       -0.3112
      5 C          21.6568   70.8735    0.0447 C.3     1  UNL1        0.1811
      6 C          21.5573   73.8653    2.0387 C.3     1  UNL1        0.2383
      7 C          22.9761   73.8598    1.4148 C.3     1  UNL1        0.1895
      8 O          23.4480   75.1928    1.2091 O.3     1  UNL1       -0.3779
      9 C          22.7342   73.1447    0.0629 C.3     1  UNL1        0.1713
     10 C          21.4211   72.3679    0.2775 C.3     1  UNL1        0.1764
     11 O          21.0085   72.5919    1.6351 O.3     1  UNL1       -0.3308
     12 O          22.5840   74.1012   -0.9875 O.3     1  UNL1       -0.3794
     13 H          24.3321   75.2418    0.8211 H       1  UNL1        0.2106
     14 H          23.3613   74.6587   -1.1269 H       1  UNL1        0.2105
     15 N          21.6361   73.9542    3.4984 N.ar    1  UNL1       -0.2551
     16 C          21.9663   72.8654    4.2156 C.ar    1  UNL1        0.3323
     17 N          22.0461   72.9182    5.5583 N.ar    1  UNL1       -0.2743
     18 C          21.7957   74.0730    6.2082 C.ar    1  UNL1        0.2626
     19 C          21.4480   75.2272    5.4658 C.ar    1  UNL1        0.0795
     20 C          21.3796   75.1465    4.1203 C.ar    1  UNL1        0.0869
     21 O          22.1949   71.8175    3.6428 O.2     1  UNL1       -0.2464
     22 O          21.8679   74.1223    7.4235 O.2     1  UNL1       -0.2670
     23 H          22.2843   72.1236    6.0602 H       1  UNL1        0.1734
     24 O          22.0072   71.4917   -3.7571 O.3     1  UNL1       -0.2703
     25 P          21.4882   72.5035   -4.8973 P.3     1  UNL1        0.2208
     26 O          21.0141   73.8829   -4.2146 O.3     1  UNL1       -0.4371
     27 O          22.5855   72.7774   -5.8508 O.2     1  UNL1       -0.5170
     28 O          20.2489   71.8384   -5.6811 O.3     1  UNL1       -0.2865
     29 C          19.1731   72.6030   -6.2280 C.3     1  UNL1        0.2611
     30 C          17.8397   71.9584   -5.8417 C.3     1  UNL1        0.1582
     31 C          17.7670   70.5536   -6.4479 C.3     1  UNL1        0.1625
     32 C          17.9450   70.6542   -7.9653 C.3     1  UNL1        0.1686
     33 C          19.2747   71.3492   -8.2698 C.3     1  UNL1        0.1760
     34 O          16.4947   69.9722   -6.1538 O.3     1  UNL1       -0.3801
     35 O          16.8703   71.4127   -8.5231 O.3     1  UNL1       -0.3794
     36 O          19.2894   72.6376   -7.6519 O.3     1  UNL1       -0.3263
     37 H          16.3793   69.0796   -6.5077 H       1  UNL1        0.2105
     38 H          16.9192   71.5177   -9.4836 H       1  UNL1        0.2105
     39 C          16.5579   72.0527   -3.7715 C.2     1  UNL1        0.2231
     40 C          16.4593   71.9592   -2.2714 C.3     1  UNL1        0.0946
     41 N          17.7447   71.8676   -4.3825 N.am    1  UNL1       -0.2994
     42 O          15.5684   72.2949   -4.4306 O.2     1  UNL1       -0.2751
     43 H          18.5362   71.6749   -3.8558 H       1  UNL1        0.1496
     44 C          19.4325   71.5072   -9.7833 C.3     1  UNL1        0.1693
     45 O          18.7142   70.4665  -10.4491 O.3     1  UNL1       -0.3794
     46 H          18.7701   70.5042  -11.4137 H       1  UNL1        0.2105
@<TRIPOS>BOND
     1    29    30    1
     2    30    41    1
     3    30    31    1
     4    31    34    1
     5    31    32    1
     6    32    35    1
     7    32    33    1
     8    33    36    1
     9    33    44    1
    10    39    40    1
    11    39    42    2
    12    39    41   am
    13    41    43    1
    14    29    28    1
    15    34    37    1
    16    35    38    1
    17    29    36    1
    18    44    45    1
    19    45    46    1
    20    15     6    1
    21    15    16   ar
    22    16    21    2
    23    16    17   ar
    24    17    23    1
    25    17    18   ar
    26    18    19   ar
    27    19    20   ar
    28    15    20   ar
    29    18    22    2
    30     6     7    1
    31     6    11    1
    32     7     9    1
    33     7     8    1
    34     8    13    1
    35     9    10    1
    36     9    12    1
    37    10     5    1
    38    10    11    1
    39    12    14    1
    40     5     4    1
    41     4     1    1
    42     1     2    1
    43     1    24    1
    44     1     3    2
    45    24    25    1
    46    28    25    1
    47    25    26    1
    48    25    27    2
@<TRIPOS>MOLECULE
UD2
 46 48 0 0 0
SMALL
GASTEIGER

@<TRIPOS>ATOM
      1 P          21.3368   70.5004   -0.7810 P.3     1  UNL1        0.2189
      2 O          22.3883   70.5080   -1.9999 O.3     1  UNL1       -0.4371
      3 O          21.8150   69.5846    0.2781 O.2     1  UNL1       -0.5170
      4 O          21.1994   71.9889   -0.1816 O.3     1  UNL1       -0.3112
      5 C          22.3196   72.7493    0.2749 C.3     1  UNL1        0.1811
      6 C          23.0779   73.9017    3.5966 C.3     1  UNL1        0.2383
      7 C          21.5541   74.1381    3.4405 C.3     1  UNL1        0.1895
      8 O          20.8874   74.0152    4.6983 O.3     1  UNL1       -0.3779
      9 C          21.1436   72.9923    2.4834 C.3     1  UNL1        0.1713
     10 C          22.4598   72.5904    1.7908 C.3     1  UNL1        0.1764
     11 O          23.4864   73.4672    2.2813 O.3     1  UNL1       -0.3308
     12 O          20.6104   71.8920    3.2222 O.3     1  UNL1       -0.3794
     13 H          19.9319   74.1551    4.6526 H       1  UNL1        0.2106
     14 H          19.8130   72.1048    3.7256 H       1  UNL1        0.2105
     15 N          23.7579   75.1458    3.9637 N.ar    1  UNL1       -0.2551
     16 C          24.8658   75.1001    4.7249 C.ar    1  UNL1        0.3323
     17 N          25.5110   76.2277    5.0777 N.ar    1  UNL1       -0.2743
     18 C          25.0530   77.4282    4.6681 C.ar    1  UNL1        0.2626
     19 C          23.8885   77.4909    3.8655 C.ar    1  UNL1        0.0795
     20 C          23.2642   76.3443    3.5234 C.ar    1  UNL1        0.0869
     21 O          25.2902   74.0246    5.1013 O.2     1  UNL1       -0.2464
     22 O          25.6363   78.4495    4.9863 O.2     1  UNL1       -0.2670
     23 H          26.3077   76.1769    5.6279 H       1  UNL1        0.1734
     24 O          19.9010   70.0024   -1.3135 O.3     1  UNL1       -0.2703
     25 P          19.2848   69.7278   -2.7757 P.3     1  UNL1        0.2208
     26 O          20.1269   68.5629   -3.5022 O.3     1  UNL1       -0.4371
     27 O          17.8727   69.3067   -2.6452 O.2     1  UNL1       -0.5170
     28 O          19.3646   71.0754   -3.6533 O.3     1  UNL1       -0.2865
     29 C          20.0248   71.1424   -4.9186 C.3     1  UNL1        0.2611
     30 C          20.4977   72.5757   -5.1732 C.3     1  UNL1        0.1582
     31 C          19.2797   73.5027   -5.2344 C.3     1  UNL1        0.1625
     32 C          18.3262   73.0039   -6.3236 C.3     1  UNL1        0.1686
     33 C          17.9369   71.5538   -6.0245 C.3     1  UNL1        0.1760
     34 O          19.7063   74.8312   -5.5448 O.3     1  UNL1       -0.3801
     35 O          18.9753   73.0723   -7.5946 O.3     1  UNL1       -0.3794
     36 O          19.1168   70.7511   -5.9505 O.3     1  UNL1       -0.3263
     37 H          18.9849   75.4730   -5.5988 H       1  UNL1        0.2105
     38 H          18.4283   72.7701   -8.3331 H       1  UNL1        0.2105
     39 C          22.7031   73.1438   -4.3066 C.2     1  UNL1        0.2231
     40 C          23.6126   73.5801   -3.1881 C.3     1  UNL1        0.0946
     41 N          21.3817   72.9999   -4.0846 N.am    1  UNL1       -0.2994
     42 O          23.1600   72.9215   -5.4085 O.2     1  UNL1       -0.2751
     43 H          21.0162   73.1765   -3.2036 H       1  UNL1        0.1496
     44 C          17.0316   71.0285   -7.1403 C.3     1  UNL1        0.1693
     45 O          16.2402   69.9473   -6.6433 O.3     1  UNL1       -0.3794
     46 H          15.6409   69.5642   -7.2984 H       1  UNL1        0.2105
@<TRIPOS>BOND
     1    29    30    1
     2    30    41    1
     3    30    31    1
     4    31    34    1
     5    31    32    1
     6    32    35    1
     7    32    33    1
     8    33    36    1
     9    33    44    1
    10    39    40    1
    11    39    42    2
    12    39    41   am
    13    41    43    1
    14    29    28    1
    15    34    37    1
    16    35    38    1
    17    29    36    1
    18    44    45    1
    19    45    46    1
    20    15     6    1
    21    15    16   ar
    22    16    21    2
    23    16    17   ar
    24    17    23    1
    25    17    18   ar
    26    18    19   ar
    27    19    20   ar
    28    15    20   ar
    29    18    22    2
    30     6     7    1
    31     6    11    1
    32     7     9    1
    33     7     8    1
    34     8    13    1
    35     9    10    1
    36     9    12    1
    37    10     5    1
    38    10    11    1
    39    12    14    1
    40     5     4    1
    41     4     1    1
    42     1     2    1
    43     1    24    1
    44     1     3    2
    45    24    25    1
    46    28    25    1
    47    25    26    1
    48    25    27    2
@<TRIPOS>MOLECULE
UD2
 46 48 0 0 0
SMALL
GASTEIGER

@<TRIPOS>ATOM
      1 P          19.5318   69.7944   -2.7457 P.3     1  UNL1        0.2189
      2 O          18.4384   68.6185   -2.6318 O.3     1  UNL1       -0.4371
      3 O          20.6705   69.3321   -3.5694 O.2     1  UNL1       -0.5170
      4 O          18.8606   71.0862   -3.4345 O.3     1  UNL1       -0.3112
      5 C          17.4587   71.1905   -3.6898 C.3     1  UNL1        0.1811
      6 C          18.5272   72.3362   -6.9274 C.3     1  UNL1        0.2383
      7 C          18.4747   70.7927   -7.0580 C.3     1  UNL1        0.1895
      8 O          18.1477   70.4046   -8.3938 O.3     1  UNL1       -0.3779
      9 C          17.3329   70.4222   -6.0800 C.3     1  UNL1        0.1713
     10 C          17.2360   71.6366   -5.1370 C.3     1  UNL1        0.1764
     11 O          18.2621   72.5635   -5.5261 O.3     1  UNL1       -0.3308
     12 O          16.1068   70.2409   -6.7904 O.3     1  UNL1       -0.3794
     13 H          18.1034   69.4480   -8.5260 H       1  UNL1        0.2106
     14 H          16.1302   69.5263   -7.4409 H       1  UNL1        0.2105
     15 N          19.8539   72.8396   -7.2902 N.ar    1  UNL1       -0.2551
     16 C          20.0081   73.5620   -8.4141 C.ar    1  UNL1        0.3323
     17 N          21.2157   74.0371   -8.7721 N.ar    1  UNL1       -0.2743
     18 C          22.2958   73.7951   -8.0019 C.ar    1  UNL1        0.2626
     19 C          22.1478   73.0369   -6.8155 C.ar    1  UNL1        0.0795
     20 C          20.9246   72.5766   -6.4788 C.ar    1  UNL1        0.0869
     21 O          19.0428   73.7882   -9.1181 O.2     1  UNL1       -0.2464
     22 O          23.3893   74.2248   -8.3246 O.2     1  UNL1       -0.2670
     23 H          21.3095   74.5552   -9.5863 H       1  UNL1        0.1734
     24 O          20.0569   70.1838   -1.2739 O.3     1  UNL1       -0.2703
     25 P          21.5072   70.5081   -0.6540 P.3     1  UNL1        0.2208
     26 O          21.7796   69.5430    0.6062 O.3     1  UNL1       -0.4371
     27 O          22.5458   70.2805   -1.6825 O.2     1  UNL1       -0.5170
     28 O          21.5543   72.0444   -0.1740 O.3     1  UNL1       -0.2865
     29 C          22.7738   72.7660    0.0082 C.3     1  UNL1        0.2611
     30 C          22.5873   73.8163    1.1058 C.3     1  UNL1        0.1582
     31 C          21.5155   74.8181    0.6650 C.3     1  UNL1        0.1625
     32 C          21.9326   75.4413   -0.6699 C.3     1  UNL1        0.1686
     33 C          22.1444   74.3280   -1.6993 C.3     1  UNL1        0.1760
     34 O          21.3869   75.8443    1.6517 O.3     1  UNL1       -0.3801
     35 O          23.1491   76.1705   -0.4972 O.3     1  UNL1       -0.3794
     36 O          23.1304   73.4143   -1.2144 O.3     1  UNL1       -0.3263
     37 H          20.7232   76.5143    1.4375 H       1  UNL1        0.2105
     38 H          23.4735   76.5926   -1.3050 H       1  UNL1        0.2105
     39 C          22.6898   73.5421    3.5249 C.2     1  UNL1        0.2231
     40 C          22.2545   72.8673    4.7991 C.3     1  UNL1        0.0946
     41 N          22.1634   73.1593    2.3448 N.am    1  UNL1       -0.2994
     42 O          23.5151   74.4309    3.5603 O.2     1  UNL1       -0.2751
     43 H          21.5044   72.4481    2.3160 H       1  UNL1        0.1496
     44 C          22.6193   74.9380   -3.0195 C.3     1  UNL1        0.1693
     45 O          22.0186   76.2228   -3.1947 O.3     1  UNL1       -0.3794
     46 H          22.2753   76.6693   -4.0131 H       1  UNL1        0.2105
@<TRIPOS>BOND
     1    29    30    1
     2    30    41    1
     3    30    31    1
     4    31    34    1
     5    31    32    1
     6    32    35    1
     7    32    33    1
     8    33    36    1
     9    33    44    1
    10    39    40    1
    11    39    42    2
    12    39    41   am
    13    41    43    1
    14    29    28    1
    15    34    37    1
    16    35    38    1
    17    29    36    1
    18    44    45    1
    19    45    46    1
    20    15     6    1
    21    15    16   ar
    22    16    21    2
    23    16    17   ar
    24    17    23    1
    25    17    18   ar
    26    18    19   ar
    27    19    20   ar
    28    15    20   ar
    29    18    22    2
    30     6     7    1
    31     6    11    1
    32     7     9    1
    33     7     8    1
    34     8    13    1
    35     9    10    1
    36     9    12    1
    37    10     5    1
    38    10    11    1
    39    12    14    1
    40     5     4    1
    41     4     1    1
    42     1     2    1
    43     1    24    1
    44     1     3    2
    45    24    25    1
    46    28    25    1
    47    25    26    1
    48    25    27    2
@<TRIPOS>MOLECULE
UD2
 46 48 0 0 0
SMALL
GASTEIGER

@<TRIPOS>ATOM
      1 P          19.1899   69.1209   -3.2973 P.3     1  UNL1        0.2189
      2 O          18.1555   69.4236   -2.1016 O.3     1  UNL1       -0.4371
      3 O          19.2224   67.6664   -3.5660 O.2     1  UNL1       -0.5170
      4 O          18.7188   69.9016   -4.6248 O.3     1  UNL1       -0.3112
      5 C          17.3670   69.9021   -5.0876 C.3     1  UNL1        0.1811
      6 C          18.4840   72.5868   -7.2045 C.3     1  UNL1        0.2383
      7 C          18.4126   71.3549   -8.1424 C.3     1  UNL1        0.1895
      8 O          18.0944   71.7489   -9.4785 O.3     1  UNL1       -0.3779
      9 C          17.2560   70.5370   -7.5174 C.3     1  UNL1        0.1713
     10 C          17.1652   71.0581   -6.0705 C.3     1  UNL1        0.1764
     11 O          18.2074   72.0319   -5.9003 O.3     1  UNL1       -0.3308
     12 O          16.0350   70.7851   -8.2164 O.3     1  UNL1       -0.3794
     13 H          18.0390   71.0131  -10.1032 H       1  UNL1        0.2106
     14 H          16.0558   70.5303   -9.1486 H       1  UNL1        0.2105
     15 N          19.8208   73.1842   -7.2386 N.ar    1  UNL1       -0.2551
     16 C          20.0700   74.2130   -8.0682 C.ar    1  UNL1        0.3323
     17 N          21.2893   74.7811   -8.1204 N.ar    1  UNL1       -0.2743
     18 C          22.2852   74.3244   -7.3341 C.ar    1  UNL1        0.2626
     19 C          22.0365   73.2427   -6.4554 C.ar    1  UNL1        0.0795
     20 C          20.8035   72.6950   -6.4207 C.ar    1  UNL1        0.0869
     21 O          19.1815   74.6353   -8.7827 O.2     1  UNL1       -0.2464
     22 O          23.3891   74.8380   -7.3802 O.2     1  UNL1       -0.2670
     23 H          21.4523   75.5213   -8.7252 H       1  UNL1        0.1734
     24 O          20.6608   69.6219   -2.8745 O.3     1  UNL1       -0.2703
     25 P          21.2353   70.4940   -1.6488 P.3     1  UNL1        0.2208
     26 O          21.1890   69.6172   -0.2988 O.3     1  UNL1       -0.4371
     27 O          22.6330   70.8857   -1.9342 O.2     1  UNL1       -0.5170
     28 O          20.3346   71.8156   -1.4621 O.3     1  UNL1       -0.2865
     29 C          20.1429   72.7799   -2.4987 C.3     1  UNL1        0.2611
     30 C          20.3643   74.1860   -1.9362 C.3     1  UNL1        0.1582
     31 C          19.3229   74.4607   -0.8471 C.3     1  UNL1        0.1625
     32 C          17.9219   74.2867   -1.4398 C.3     1  UNL1        0.1686
     33 C          17.7946   72.8763   -2.0215 C.3     1  UNL1        0.1760
     34 O          19.4756   75.7986   -0.3673 O.3     1  UNL1       -0.3801
     35 O          17.7178   75.2508   -2.4743 O.3     1  UNL1       -0.3794
     36 O          18.8109   72.6751   -3.0058 O.3     1  UNL1       -0.3263
     37 H          18.8474   76.0413    0.3267 H       1  UNL1        0.2105
     38 H          16.8487   75.1981   -2.8961 H       1  UNL1        0.2105
     39 C          21.9019   74.0208   -0.0531 C.2     1  UNL1        0.2231
     40 C          23.2841   74.1140    0.5380 C.3     1  UNL1        0.0946
     41 N          21.7091   74.2771   -1.3620 N.am    1  UNL1       -0.2994
     42 O          20.9610   73.7148    0.6493 O.2     1  UNL1       -0.2751
     43 H          22.4609   74.5228   -1.9236 H       1  UNL1        0.1496
     44 C          16.4179   72.7142   -2.6689 C.3     1  UNL1        0.1693
     45 O          15.8762   71.4374   -2.3247 O.3     1  UNL1       -0.3794
     46 H          15.0024   71.2656   -2.7017 H       1  UNL1        0.2105
@<TRIPOS>BOND
     1    29    30    1
     2    30    41    1
     3    30    31    1
     4    31    34    1
     5    31    32    1
     6    32    35    1
     7    32    33    1
     8    33    36    1
     9    33    44    1
    10    39    40    1
    11    39    42    2
    12    39    41   am
    13    41    43    1
    14    29    28    1
    15    34    37    1
    16    35    38    1
    17    29    36    1
    18    44    45    1
    19    45    46    1
    20    15     6    1
    21    15    16   ar
    22    16    21    2
    23    16    17   ar
    24    17    23    1
    25    17    18   ar
    26    18    19   ar
    27    19    20   ar
    28    15    20   ar
    29    18    22    2
    30     6     7    1
    31     6    11    1
    32     7     9    1
    33     7     8    1
    34     8    13    1
    35     9    10    1
    36     9    12    1
    37    10     5    1
    38    10    11    1
    39    12    14    1
    40     5     4    1
    41     4     1    1
    42     1     2    1
    43     1    24    1
    44     1     3    2
    45    24    25    1
    46    28    25    1
    47    25    26    1
    48    25    27    2
@<TRIPOS>MOLECULE
UD2
 46 48 0 0 0
SMALL
GASTEIGER

@<TRIPOS>ATOM
      1 P          22.9396   71.8969   -3.1515 P.3     1  UNL1        0.2189
      2 O          23.8853   72.8803   -4.0058 O.3     1  UNL1       -0.4371
      3 O          23.5018   70.5285   -3.1737 O.2     1  UNL1       -0.5170
      4 O          22.8578   72.4190   -1.6302 O.3     1  UNL1       -0.3112
      5 C          22.5138   71.5692   -0.5343 C.3     1  UNL1        0.1811
      6 C          20.5197   73.0536    2.0651 C.3     1  UNL1        0.2383
      7 C          20.8769   74.2337    1.1259 C.3     1  UNL1        0.1895
      8 O          19.8414   75.2183    1.1276 O.3     1  UNL1       -0.3779
      9 C          20.9724   73.5349   -0.2525 C.3     1  UNL1        0.1713
     10 C          21.2032   72.0513    0.0926 C.3     1  UNL1        0.1764
     11 O          21.2804   71.9519    1.5236 O.3     1  UNL1       -0.3308
     12 O          19.7530   73.6961   -0.9791 O.3     1  UNL1       -0.3794
     13 H          20.0188   75.9770    0.5553 H       1  UNL1        0.2106
     14 H          19.5280   74.6161   -1.1722 H       1  UNL1        0.2105
     15 N          20.9369   73.3432    3.4388 N.ar    1  UNL1       -0.2551
     16 C          21.9237   72.6232    4.0014 C.ar    1  UNL1        0.3323
     17 N          22.3273   72.8674    5.2622 N.ar    1  UNL1       -0.2743
     18 C          21.7445   73.8463    5.9838 C.ar    1  UNL1        0.2626
     19 C          20.7051   74.6127    5.4038 C.ar    1  UNL1        0.0795
     20 C          20.3236   74.3489    4.1363 C.ar    1  UNL1        0.0869
     21 O          22.4584   71.7377    3.3624 O.2     1  UNL1       -0.2464
     22 O          22.1091   74.0686    7.1249 O.2     1  UNL1       -0.2670
     23 H          23.0395   72.3380    5.6530 H       1  UNL1        0.1734
     24 O          21.4626   71.8811   -3.7929 O.3     1  UNL1       -0.2703
     25 P          20.2018   70.8868   -3.6716 P.3     1  UNL1        0.2208
     26 O          20.7265   69.3783   -3.4647 O.3     1  UNL1       -0.4371
     27 O          19.3707   71.2825   -2.5135 O.2     1  UNL1       -0.5170
     28 O          19.3218   70.9695   -5.0175 O.3     1  UNL1       -0.2865
     29 C          19.2802   72.1296   -5.8503 C.3     1  UNL1        0.2611
     30 C          17.8348   72.6175   -5.9754 C.3     1  UNL1        0.1582
     31 C          16.9945   71.5296   -6.6511 C.3     1  UNL1        0.1625
     32 C          17.6131   71.1924   -8.0106 C.3     1  UNL1        0.1686
     33 C          19.0673   70.7592   -7.8069 C.3     1  UNL1        0.1760
     34 O          15.6596   72.0052   -6.8386 O.3     1  UNL1       -0.3801
     35 O          17.5711   72.3451   -8.8536 O.3     1  UNL1       -0.3794
     36 O          19.7856   71.8033   -7.1466 O.3     1  UNL1       -0.3263
     37 H          15.0705   71.3657   -7.2618 H       1  UNL1        0.2105
     38 H          17.9482   72.2039   -9.7333 H       1  UNL1        0.2105
     39 C          16.5925   71.9496   -3.9884 C.2     1  UNL1        0.2231
     40 C          16.0375   72.2347   -2.6176 C.3     1  UNL1        0.0946
     41 N          17.2951   72.8957   -4.6421 N.am    1  UNL1       -0.2994
     42 O          16.4071   70.8675   -4.5051 O.2     1  UNL1       -0.2751
     43 H          17.4428   73.7613   -4.2298 H       1  UNL1        0.1496
     44 C          19.7105   70.4778   -9.1661 C.3     1  UNL1        0.1693
     45 O          18.6893   70.2405  -10.1372 O.3     1  UNL1       -0.3794
     46 H          19.0252   70.0547  -11.0247 H       1  UNL1        0.2105
@<TRIPOS>BOND
     1    29    30    1
     2    30    41    1
     3    30    31    1
     4    31    34    1
     5    31    32    1
     6    32    35    1
     7    32    33    1
     8    33    36    1
     9    33    44    1
    10    39    40    1
    11    39    42    2
    12    39    41   am
    13    41    43    1
    14    29    28    1
    15    34    37    1
    16    35    38    1
    17    29    36    1
    18    44    45    1
    19    45    46    1
    20    15     6    1
    21    15    16   ar
    22    16    21    2
    23    16    17   ar
    24    17    23    1
    25    17    18   ar
    26    18    19   ar
    27    19    20   ar
    28    15    20   ar
    29    18    22    2
    30     6     7    1
    31     6    11    1
    32     7     9    1
    33     7     8    1
    34     8    13    1
    35     9    10    1
    36     9    12    1
    37    10     5    1
    38    10    11    1
    39    12    14    1
    40     5     4    1
    41     4     1    1
    42     1     2    1
    43     1    24    1
    44     1     3    2
    45    24    25    1
    46    28    25    1
    47    25    26    1
    48    25    27    2
@<TRIPOS>MOLECULE
UD2
 46 48 0 0 0
SMALL
GASTEIGER

@<TRIPOS>ATOM
      1 P          22.0377   70.6309   -2.5569 P.3     1  UNL1        0.2189
      2 O          23.5418   70.4593   -3.1041 O.3     1  UNL1       -0.4371
      3 O          21.9197   69.9917   -1.2278 O.2     1  UNL1       -0.5170
      4 O          21.6879   72.1980   -2.4317 O.3     1  UNL1       -0.3112
      5 C          20.4005   72.6780   -2.0396 C.3     1  UNL1        0.1811
      6 C          21.2877   74.6405    0.8411 C.3     1  UNL1        0.2383
      7 C          22.5653   74.6366   -0.0363 C.3     1  UNL1        0.1895
      8 O          23.3071   75.8455    0.1374 O.3     1  UNL1       -0.3779
      9 C          21.9777   74.5497   -1.4662 C.3     1  UNL1        0.1713
     10 C          20.5601   73.9838   -1.2569 C.3     1  UNL1        0.1764
     11 O          20.4025   73.7334    0.1487 O.3     1  UNL1       -0.3308
     12 O          21.9160   75.8475   -2.0599 O.3     1  UNL1       -0.3794
     13 H          24.1158   75.8903   -0.3905 H       1  UNL1        0.2106
     14 H          22.7767   76.2759   -2.1611 H       1  UNL1        0.2105
     15 N          21.5848   74.1453    2.1870 N.ar    1  UNL1       -0.2551
     16 C          21.7749   72.8288    2.3859 C.ar    1  UNL1        0.3323
     17 N          22.0491   72.3459    3.6121 N.ar    1  UNL1       -0.2743
     18 C          22.1395   73.1820    4.6663 C.ar    1  UNL1        0.2626
     19 C          21.9426   74.5703    4.4713 C.ar    1  UNL1        0.0795
     20 C          21.6732   75.0273    3.2303 C.ar    1  UNL1        0.0869
     21 O          21.6966   72.0633    1.4445 O.2     1  UNL1       -0.2464
     22 O          22.3880   72.7462    5.7767 O.2     1  UNL1       -0.2670
     23 H          22.1822   71.3937    3.7382 H       1  UNL1        0.1734
     24 O          21.0104   69.9327   -3.5818 O.3     1  UNL1       -0.2703
     25 P          19.4795   69.4457   -3.4720 P.3     1  UNL1        0.2208
     26 O          19.3988   67.8624   -3.7555 O.3     1  UNL1       -0.4371
     27 O          18.9674   69.7296   -2.1135 O.2     1  UNL1       -0.5170
     28 O          18.5871   70.2319   -4.5575 O.3     1  UNL1       -0.2865
     29 C          19.0326   71.4166   -5.2203 C.3     1  UNL1        0.2611
     30 C          17.9091   72.4561   -5.2193 C.3     1  UNL1        0.1582
     31 C          16.7147   71.9051   -6.0043 C.3     1  UNL1        0.1625
     32 C          17.1708   71.5448   -7.4208 C.3     1  UNL1        0.1686
     33 C          18.3230   70.5401   -7.3369 C.3     1  UNL1        0.1760
     34 O          15.6885   72.8980   -6.0710 O.3     1  UNL1       -0.3801
     35 O          17.6132   72.7244   -8.0947 O.3     1  UNL1       -0.3794
     36 O          19.3884   71.1026   -6.5683 O.3     1  UNL1       -0.3263
     37 H          14.8999   72.6160   -6.5544 H       1  UNL1        0.2105
     38 H          17.9181   72.5702   -8.9998 H       1  UNL1        0.2105
     39 C          16.5556   71.9779   -3.2502 C.2     1  UNL1        0.2231
     40 C          16.1365   72.2639   -1.8321 C.3     1  UNL1        0.0946
     41 N          17.5018   72.7350   -3.8398 N.am    1  UNL1       -0.2994
     42 O          16.0412   71.0655   -3.8627 O.2     1  UNL1       -0.2751
     43 H          17.9126   73.4652   -3.3509 H       1  UNL1        0.1496
     44 C          18.8242   70.2204   -8.7465 C.3     1  UNL1        0.1693
     45 O          20.2127   69.8859   -8.6947 O.3     1  UNL1       -0.3794
     46 H          20.5984   69.6712   -9.5550 H       1  UNL1        0.2105
@<TRIPOS>BOND
     1    29    30    1
     2    30    41    1
     3    30    31    1
     4    31    34    1
     5    31    32    1
     6    32    35    1
     7    32    33    1
     8    33    36    1
     9    33    44    1
    10    39    40    1
    11    39    42    2
    12    39    41   am
    13    41    43    1
    14    29    28    1
    15    34    37    1
    16    35    38    1
    17    29    36    1
    18    44    45    1
    19    45    46    1
    20    15     6    1
    21    15    16   ar
    22    16    21    2
    23    16    17   ar
    24    17    23    1
    25    17    18   ar
    26    18    19   ar
    27    19    20   ar
    28    15    20   ar
    29    18    22    2
    30     6     7    1
    31     6    11    1
    32     7     9    1
    33     7     8    1
    34     8    13    1
    35     9    10    1
    36     9    12    1
    37    10     5    1
    38    10    11    1
    39    12    14    1
    40     5     4    1
    41     4     1    1
    42     1     2    1
    43     1    24    1
    44     1     3    2
    45    24    25    1
    46    28    25    1
    47    25    26    1
    48    25    27    2
