@<TRIPOS>MOLECULE
GDU
 43 45 0 0 0
SMALL
GASTEIGER

@<TRIPOS>ATOM
      1 P          22.1101   70.8752   -2.4382 P.3     1  UNL1        0.2189
      2 O          21.5243   69.5997   -1.9696 O.2     1  UNL1       -0.5170
      3 O          23.5362   70.5890   -3.1290 O.3     1  UNL1       -0.4371
      4 O          21.1229   71.5584   -3.5085 O.3     1  UNL1       -0.3112
      5 C          20.1473   72.2893   -2.7639 C.3     1  UNL1        0.1811
      6 C          17.9099   71.3274   -5.4090 C.3     1  UNL1        0.2383
      7 C          18.0135   70.0688   -4.5100 C.3     1  UNL1        0.1895
      8 O          16.7991   69.3158   -4.5450 O.3     1  UNL1       -0.3779
      9 C          18.2392   70.6895   -3.1068 C.3     1  UNL1        0.1713
     10 C          18.7704   72.1040   -3.4042 C.3     1  UNL1        0.1764
     11 O          18.8747   72.2333   -4.8327 O.3     1  UNL1       -0.3308
     12 O          17.0079   70.7519   -2.3842 O.3     1  UNL1       -0.3794
     13 H          16.9291   68.5500   -3.9684 H       1  UNL1        0.2106
     14 H          16.6971   69.8423   -2.2814 H       1  UNL1        0.2105
     15 N          18.2656   71.0066   -6.7922 N.ar    1  UNL1       -0.2551
     16 C          17.3008   70.6809   -7.6705 C.ar    1  UNL1        0.3323
     17 N          17.6007   70.3851   -8.9490 N.ar    1  UNL1       -0.2743
     18 C          18.8805   70.4014   -9.3685 C.ar    1  UNL1        0.2626
     19 C          19.9078   70.7370   -8.4530 C.ar    1  UNL1        0.0795
     20 C          19.5790   71.0336   -7.1777 C.ar    1  UNL1        0.0869
     21 O          16.1417   70.6625   -7.3068 O.2     1  UNL1       -0.2464
     22 O          19.1533   70.1291  -10.5243 O.2     1  UNL1       -0.2670
     23 H          16.8912   70.1564   -9.5703 H       1  UNL1        0.1734
     24 O          22.3117   71.8647   -1.1842 O.3     1  UNL1       -0.2703
     25 P          22.4900   70.9368    0.1185 P.3     1  UNL1        0.2208
     26 O          21.2172   70.2387    0.4045 O.2     1  UNL1       -0.5170
     27 O          23.6484   69.8506   -0.1511 O.3     1  UNL1       -0.4371
     28 O          22.8965   71.8514    1.3787 O.3     1  UNL1       -0.2858
     29 C          21.9560   72.9248    1.4330 C.3     1  UNL1        0.2704
     30 C          22.6727   74.2449    1.1448 C.3     1  UNL1        0.1967
     31 C          23.7831   74.4458    2.1807 C.3     1  UNL1        0.1715
     32 C          23.1733   74.3271    3.5820 C.3     1  UNL1        0.1694
     33 C          22.4197   72.9988    3.6860 C.3     1  UNL1        0.1761
     34 O          23.2402   74.2052   -0.1657 O.3     1  UNL1       -0.3775
     35 O          24.3649   75.7408    2.0158 O.3     1  UNL1       -0.3794
     36 O          22.2715   75.4122    3.8042 O.3     1  UNL1       -0.3794
     37 O          21.3623   72.9691    2.7284 O.3     1  UNL1       -0.3258
     38 H          22.5081   74.0704   -0.7828 H       1  UNL1        0.2106
     39 H          24.7238   75.7743    1.1201 H       1  UNL1        0.2105
     40 H          22.7869   76.2254    3.7236 H       1  UNL1        0.2105
     41 C          21.8355   72.8546    5.0931 C.3     1  UNL1        0.1693
     42 O          20.5106   73.3887    5.1149 O.3     1  UNL1       -0.3794
     43 H          20.1791   73.2780    6.0166 H       1  UNL1        0.2105
@<TRIPOS>BOND
     1    15    16   ar
     2    15    20   ar
     3    15     6    1
     4    16    17   ar
     5    16    21    2
     6    17    18   ar
     7    17    23    1
     8    18    19   ar
     9    18    22    2
    10    19    20   ar
    11     6     7    1
    12     6    11    1
    13     7     8    1
    14     7     9    1
    15     8    13    1
    16     9    10    1
    17     9    12    1
    18    10    11    1
    19    10     5    1
    20    12    14    1
    21     5     4    1
    22     4     1    1
    23     1     2    2
    24     1     3    1
    25     1    24    1
    26    24    25    1
    27    25    26    2
    28    25    27    1
    29    25    28    1
    30    28    29    1
    31    29    30    1
    32    29    37    1
    33    30    31    1
    34    30    34    1
    35    31    32    1
    36    31    35    1
    37    32    33    1
    38    32    36    1
    39    33    41    1
    40    33    37    1
    41    41    42    1
    42    34    38    1
    43    35    39    1
    44    36    40    1
    45    42    43    1
@<TRIPOS>MOLECULE
GDU
 43 45 0 0 0
SMALL
GASTEIGER

@<TRIPOS>ATOM
      1 P          22.1194   70.9679   -2.6167 P.3     1  UNL1        0.2189
      2 O          21.5427   69.6250   -2.3855 O.2     1  UNL1       -0.5170
      3 O          23.5677   70.8187   -3.3046 O.3     1  UNL1       -0.4371
      4 O          21.1495   71.8095   -3.5851 O.3     1  UNL1       -0.3112
      5 C          20.1425   72.3929   -2.7568 C.3     1  UNL1        0.1811
      6 C          17.9187   71.3711   -5.3908 C.3     1  UNL1        0.2383
      7 C          18.0484   70.1206   -4.4841 C.3     1  UNL1        0.1895
      8 O          16.8486   69.3440   -4.5117 O.3     1  UNL1       -0.3779
      9 C          18.2649   70.7545   -3.0853 C.3     1  UNL1        0.1713
     10 C          18.7681   72.1770   -3.3929 C.3     1  UNL1        0.1764
     11 O          18.8670   72.2992   -4.8225 O.3     1  UNL1       -0.3308
     12 O          17.0342   70.7978   -2.3605 O.3     1  UNL1       -0.3794
     13 H          16.9945   68.5846   -3.9304 H       1  UNL1        0.2106
     14 H          16.7411   69.8830   -2.2512 H       1  UNL1        0.2105
     15 N          18.2777   71.0484   -6.7727 N.ar    1  UNL1       -0.2551
     16 C          17.3159   70.7126   -7.6505 C.ar    1  UNL1        0.3323
     17 N          17.6188   70.4148   -8.9278 N.ar    1  UNL1       -0.2743
     18 C          18.8987   70.4391   -9.3466 C.ar    1  UNL1        0.2626
     19 C          19.9229   70.7855   -8.4316 C.ar    1  UNL1        0.0795
     20 C          19.5910   71.0838   -7.1575 C.ar    1  UNL1        0.0869
     21 O          16.1568   70.6867   -7.2875 O.2     1  UNL1       -0.2464
     22 O          19.1743   70.1651  -10.5013 O.2     1  UNL1       -0.2670
     23 H          16.9114   70.1787   -9.5489 H       1  UNL1        0.1734
     24 O          22.2718   71.7350   -1.2093 O.3     1  UNL1       -0.2703
     25 P          21.9088   70.6720   -0.0568 P.3     1  UNL1        0.2208
     26 O          20.9107   69.7086   -0.5712 O.2     1  UNL1       -0.5170
     27 O          23.2413   69.8807    0.3820 O.3     1  UNL1       -0.4371
     28 O          21.3020   71.4462    1.2170 O.3     1  UNL1       -0.2858
     29 C          22.3270   72.3146    1.7018 C.3     1  UNL1        0.2704
     30 C          22.1670   72.4977    3.2119 C.3     1  UNL1        0.1967
     31 C          20.7812   73.0837    3.4990 C.3     1  UNL1        0.1715
     32 C          20.6055   74.3579    2.6651 C.3     1  UNL1        0.1694
     33 C          20.8822   74.0328    1.1952 C.3     1  UNL1        0.1761
     34 O          22.2982   71.2333    3.8639 O.3     1  UNL1       -0.3775
     35 O          20.6712   73.3977    4.8889 O.3     1  UNL1       -0.3794
     36 O          21.5207   75.3560    3.1192 O.3     1  UNL1       -0.3794
     37 O          22.2264   73.5773    1.0477 O.3     1  UNL1       -0.3258
     38 H          23.1800   70.8994    3.6503 H       1  UNL1        0.2106
     39 H          20.7997   72.5723    5.3732 H       1  UNL1        0.2105
     40 H          21.3135   75.5240    4.0477 H       1  UNL1        0.2105
     41 C          20.6761   75.2911    0.3488 C.3     1  UNL1        0.1693
     42 O          19.2859   75.4461    0.0581 O.3     1  UNL1       -0.3794
     43 H          19.1992   76.2486   -0.4746 H       1  UNL1        0.2105
@<TRIPOS>BOND
     1    15    16   ar
     2    15    20   ar
     3    15     6    1
     4    16    17   ar
     5    16    21    2
     6    17    18   ar
     7    17    23    1
     8    18    19   ar
     9    18    22    2
    10    19    20   ar
    11     6     7    1
    12     6    11    1
    13     7     8    1
    14     7     9    1
    15     8    13    1
    16     9    10    1
    17     9    12    1
    18    10    11    1
    19    10     5    1
    20    12    14    1
    21     5     4    1
    22     4     1    1
    23     1     2    2
    24     1     3    1
    25     1    24    1
    26    24    25    1
    27    25    26    2
    28    25    27    1
    29    25    28    1
    30    28    29    1
    31    29    30    1
    32    29    37    1
    33    30    31    1
    34    30    34    1
    35    31    32    1
    36    31    35    1
    37    32    33    1
    38    32    36    1
    39    33    41    1
    40    33    37    1
    41    41    42    1
    42    34    38    1
    43    35    39    1
    44    36    40    1
    45    42    43    1
@<TRIPOS>MOLECULE
GDU
 43 45 0 0 0
SMALL
GASTEIGER

@<TRIPOS>ATOM
      1 P          22.8525   72.2812   -3.6685 P.3     1  UNL1        0.2189
      2 O          23.3056   70.9013   -3.3853 O.2     1  UNL1       -0.5170
      3 O          22.5108   72.4227   -5.2357 O.3     1  UNL1       -0.4371
      4 O          21.5368   72.6031   -2.8012 O.3     1  UNL1       -0.3112
      5 C          20.8234   71.3736   -2.6597 C.3     1  UNL1        0.1811
      6 C          18.2745   71.1687   -5.1872 C.3     1  UNL1        0.2383
      7 C          18.1638   69.8300   -4.4136 C.3     1  UNL1        0.1895
      8 O          16.8174   69.3500   -4.4151 O.3     1  UNL1       -0.3779
      9 C          18.6019   70.2435   -2.9845 C.3     1  UNL1        0.1713
     10 C          19.4019   71.5418   -3.1992 C.3     1  UNL1        0.1764
     11 O          19.4431   71.7931   -4.6146 O.3     1  UNL1       -0.3308
     12 O          17.4588   70.4827   -2.1610 O.3     1  UNL1       -0.3794
     13 H          16.8171   68.5187   -3.9204 H       1  UNL1        0.2106
     14 H          16.9689   69.6506   -2.1133 H       1  UNL1        0.2105
     15 N          18.4682   70.9257   -6.6177 N.ar    1  UNL1       -0.2551
     16 C          17.3990   70.7912   -7.4220 C.ar    1  UNL1        0.3323
     17 N          17.5495   70.5708   -8.7414 N.ar    1  UNL1       -0.2743
     18 C          18.7809   70.4711   -9.2780 C.ar    1  UNL1        0.2626
     19 C          19.9163   70.6049   -8.4419 C.ar    1  UNL1        0.0795
     20 C          19.7369   70.8298   -7.1229 C.ar    1  UNL1        0.0869
     21 O          16.2819   70.8792   -6.9525 O.2     1  UNL1       -0.2464
     22 O          18.9181   70.2668  -10.4713 O.2     1  UNL1       -0.2670
     23 H          16.7667   70.4805   -9.3078 H       1  UNL1        0.1734
     24 O          24.0204   73.3190   -3.2795 O.3     1  UNL1       -0.2703
     25 P          23.3308   74.5023   -2.4345 P.3     1  UNL1        0.2208
     26 O          24.1071   75.7497   -2.6088 O.2     1  UNL1       -0.5170
     27 O          21.8254   74.7299   -2.9602 O.3     1  UNL1       -0.4371
     28 O          23.2989   74.1022   -0.8760 O.3     1  UNL1       -0.2858
     29 C          22.1457   74.7271   -0.3107 C.3     1  UNL1        0.2704
     30 C          22.5852   75.7855    0.7022 C.3     1  UNL1        0.1967
     31 C          23.4255   75.1136    1.7926 C.3     1  UNL1        0.1715
     32 C          22.6254   73.9440    2.3769 C.3     1  UNL1        0.1694
     33 C          22.1843   73.0235    1.2362 C.3     1  UNL1        0.1761
     34 O          23.3647   76.7847    0.0426 O.3     1  UNL1       -0.3775
     35 O          23.7199   76.0592    2.8229 O.3     1  UNL1       -0.3794
     36 O          21.4778   74.4457    3.0634 O.3     1  UNL1       -0.3794
     37 O          21.3426   73.7423    0.3357 O.3     1  UNL1       -0.3258
     38 H          22.7998   77.1749   -0.6382 H       1  UNL1        0.2106
     39 H          24.2113   76.7801    2.4090 H       1  UNL1        0.2105
     40 H          21.8025   75.0228    3.7668 H       1  UNL1        0.2105
     41 C          21.4135   71.8336    1.8123 C.3     1  UNL1        0.1693
     42 O          21.8033   70.6398    1.1312 O.3     1  UNL1       -0.3794
     43 H          21.2967   69.9155    1.5236 H       1  UNL1        0.2105
@<TRIPOS>BOND
     1    15    16   ar
     2    15    20   ar
     3    15     6    1
     4    16    17   ar
     5    16    21    2
     6    17    18   ar
     7    17    23    1
     8    18    19   ar
     9    18    22    2
    10    19    20   ar
    11     6     7    1
    12     6    11    1
    13     7     8    1
    14     7     9    1
    15     8    13    1
    16     9    10    1
    17     9    12    1
    18    10    11    1
    19    10     5    1
    20    12    14    1
    21     5     4    1
    22     4     1    1
    23     1     2    2
    24     1     3    1
    25     1    24    1
    26    24    25    1
    27    25    26    2
    28    25    27    1
    29    25    28    1
    30    28    29    1
    31    29    30    1
    32    29    37    1
    33    30    31    1
    34    30    34    1
    35    31    32    1
    36    31    35    1
    37    32    33    1
    38    32    36    1
    39    33    41    1
    40    33    37    1
    41    41    42    1
    42    34    38    1
    43    35    39    1
    44    36    40    1
    45    42    43    1
@<TRIPOS>MOLECULE
GDU
 43 45 0 0 0
SMALL
GASTEIGER

@<TRIPOS>ATOM
      1 P          21.2834   73.8697   -4.3642 P.3     1  UNL1        0.2189
      2 O          21.8062   73.8602   -5.7484 O.2     1  UNL1       -0.5170
      3 O          22.1475   74.8940   -3.4713 O.3     1  UNL1       -0.4371
      4 O          19.7436   74.3343   -4.3748 O.3     1  UNL1       -0.3112
      5 C          19.1031   73.6688   -3.2852 C.3     1  UNL1        0.1811
      6 C          17.5643   71.3957   -5.6073 C.3     1  UNL1        0.2383
      7 C          18.1628   70.4822   -4.5072 C.3     1  UNL1        0.1895
      8 O          17.3823   69.2950   -4.3499 O.3     1  UNL1       -0.3779
      9 C          18.0618   71.3815   -3.2477 C.3     1  UNL1        0.1713
     10 C          17.9540   72.8091   -3.8149 C.3     1  UNL1        0.1764
     11 O          18.0374   72.7110   -5.2472 O.3     1  UNL1       -0.3308
     12 O          16.8982   71.0485   -2.4881 O.3     1  UNL1       -0.3794
     13 H          17.8062   68.7727   -3.6546 H       1  UNL1        0.2106
     14 H          16.9981   70.1274   -2.2118 H       1  UNL1        0.2105
     15 N          18.0644   71.0114   -6.9283 N.ar    1  UNL1       -0.2551
     16 C          17.1965   70.7885   -7.9310 C.ar    1  UNL1        0.3323
     17 N          17.6303   70.4375   -9.1559 N.ar    1  UNL1       -0.2743
     18 C          18.9480   70.2936   -9.3952 C.ar    1  UNL1        0.2626
     19 C          19.8735   70.5196   -8.3471 C.ar    1  UNL1        0.0795
     20 C          19.4116   70.8748   -7.1293 C.ar    1  UNL1        0.0869
     21 O          16.0049   70.9147   -7.7303 O.2     1  UNL1       -0.2464
     22 O          19.3414   69.9713  -10.5024 O.2     1  UNL1       -0.2670
     23 H          16.9901   70.2847   -9.8690 H       1  UNL1        0.1734
     24 O          21.3945   72.3899   -3.7394 O.3     1  UNL1       -0.2703
     25 P          22.8753   72.2532   -3.1241 P.3     1  UNL1        0.2208
     26 O          23.2801   70.8301   -3.1251 O.2     1  UNL1       -0.5170
     27 O          23.9087   73.1052   -4.0187 O.3     1  UNL1       -0.4371
     28 O          22.8846   72.8137   -1.6155 O.3     1  UNL1       -0.2858
     29 C          21.5963   72.5400   -1.0632 C.3     1  UNL1        0.2704
     30 C          21.2122   73.6555   -0.0897 C.3     1  UNL1        0.1967
     31 C          22.2687   73.7375    1.0165 C.3     1  UNL1        0.1715
     32 C          22.4281   72.3489    1.6457 C.3     1  UNL1        0.1694
     33 C          22.7222   71.3321    0.5399 C.3     1  UNL1        0.1761
     34 O          21.1509   74.9003   -0.7883 O.3     1  UNL1       -0.3775
     35 O          21.8496   74.6732    2.0121 O.3     1  UNL1       -0.3794
     36 O          21.2231   71.9901    2.3233 O.3     1  UNL1       -0.3794
     37 O          21.6306   71.2902   -0.3781 O.3     1  UNL1       -0.3258
     38 H          20.4803   74.8005   -1.4777 H       1  UNL1        0.2106
     39 H          21.7509   75.5262    1.5706 H       1  UNL1        0.2105
     40 H          21.0752   72.6590    3.0044 H       1  UNL1        0.2105
     41 C          22.9172   69.9474    1.1615 C.3     1  UNL1        0.1693
     42 O          22.3674   68.9548    0.2934 O.3     1  UNL1       -0.3794
     43 H          22.5112   68.0990    0.7202 H       1  UNL1        0.2105
@<TRIPOS>BOND
     1    15    16   ar
     2    15    20   ar
     3    15     6    1
     4    16    17   ar
     5    16    21    2
     6    17    18   ar
     7    17    23    1
     8    18    19   ar
     9    18    22    2
    10    19    20   ar
    11     6     7    1
    12     6    11    1
    13     7     8    1
    14     7     9    1
    15     8    13    1
    16     9    10    1
    17     9    12    1
    18    10    11    1
    19    10     5    1
    20    12    14    1
    21     5     4    1
    22     4     1    1
    23     1     2    2
    24     1     3    1
    25     1    24    1
    26    24    25    1
    27    25    26    2
    28    25    27    1
    29    25    28    1
    30    28    29    1
    31    29    30    1
    32    29    37    1
    33    30    31    1
    34    30    34    1
    35    31    32    1
    36    31    35    1
    37    32    33    1
    38    32    36    1
    39    33    41    1
    40    33    37    1
    41    41    42    1
    42    34    38    1
    43    35    39    1
    44    36    40    1
    45    42    43    1
@<TRIPOS>MOLECULE
GDU
 43 45 0 0 0
SMALL
GASTEIGER

@<TRIPOS>ATOM
      1 P          21.6583   70.2661   -0.4296 P.3     1  UNL1        0.2189
      2 O          21.8169   69.1542    0.5336 O.2     1  UNL1       -0.5170
      3 O          23.1095   70.7592   -0.9235 O.3     1  UNL1       -0.4371
      4 O          20.8033   69.7624   -1.6954 O.3     1  UNL1       -0.3112
      5 C          19.9319   70.8343   -2.0591 C.3     1  UNL1        0.1811
      6 C          20.7326   72.3921   -5.1991 C.3     1  UNL1        0.2383
      7 C          19.6294   73.2933   -4.5877 C.3     1  UNL1        0.1895
      8 O          19.7972   74.6528   -4.9960 O.3     1  UNL1       -0.3779
      9 C          19.8878   73.1366   -3.0666 C.3     1  UNL1        0.1713
     10 C          20.6816   71.8216   -2.9553 C.3     1  UNL1        0.1764
     11 O          20.8059   71.2800   -4.2817 O.3     1  UNL1       -0.3308
     12 O          20.6567   74.2361   -2.5746 O.3     1  UNL1       -0.3794
     13 H          19.0826   75.1580   -4.5838 H       1  UNL1        0.2106
     14 H          20.1325   75.0343   -2.7258 H       1  UNL1        0.2105
     15 N          20.3463   71.9343   -6.5347 N.ar    1  UNL1       -0.2551
     16 C          21.1405   72.2008   -7.5866 C.ar    1  UNL1        0.3323
     17 N          20.8102   71.7882   -8.8246 N.ar    1  UNL1       -0.2743
     18 C          19.6672   71.1063   -9.0317 C.ar    1  UNL1        0.2626
     19 C          18.8180   70.8233   -7.9340 C.ar    1  UNL1        0.0795
     20 C          19.1753   71.2451   -6.7023 C.ar    1  UNL1        0.0869
     21 O          22.1749   72.8145   -7.4153 O.2     1  UNL1       -0.2464
     22 O          19.3650   70.7366  -10.1526 O.2     1  UNL1       -0.2670
     23 H          21.3973   71.9857   -9.5716 H       1  UNL1        0.1734
     24 O          20.8922   71.4888    0.2849 O.3     1  UNL1       -0.2703
     25 P          21.8647   72.0345    1.4453 P.3     1  UNL1        0.2208
     26 O          22.7613   70.9449    1.8901 O.2     1  UNL1       -0.5170
     27 O          22.7468   73.2558    0.8755 O.3     1  UNL1       -0.4371
     28 O          20.9822   72.5465    2.6899 O.3     1  UNL1       -0.2858
     29 C          21.3195   73.9181    2.9014 C.3     1  UNL1        0.2704
     30 C          22.2258   74.0362    4.1278 C.3     1  UNL1        0.1967
     31 C          21.4933   73.4653    5.3459 C.3     1  UNL1        0.1715
     32 C          20.1332   74.1613    5.4705 C.3     1  UNL1        0.1694
     33 C          19.3843   74.0318    4.1418 C.3     1  UNL1        0.1761
     34 O          23.4310   73.3022    3.9047 O.3     1  UNL1       -0.3775
     35 O          22.2659   73.7014    6.5249 O.3     1  UNL1       -0.3794
     36 O          20.3294   75.5415    5.7813 O.3     1  UNL1       -0.3794
     37 O          20.1273   74.6727    3.1060 O.3     1  UNL1       -0.3258
     38 H          23.8541   73.6902    3.1267 H       1  UNL1        0.2106
     39 H          23.1137   73.2573    6.3975 H       1  UNL1        0.2105
     40 H          20.8081   75.5742    6.6198 H       1  UNL1        0.2105
     41 C          18.0102   74.6939    4.2662 C.3     1  UNL1        0.1693
     42 O          17.2473   74.0211    5.2693 O.3     1  UNL1       -0.3794
     43 H          16.3911   74.4684    5.3168 H       1  UNL1        0.2105
@<TRIPOS>BOND
     1    15    16   ar
     2    15    20   ar
     3    15     6    1
     4    16    17   ar
     5    16    21    2
     6    17    18   ar
     7    17    23    1
     8    18    19   ar
     9    18    22    2
    10    19    20   ar
    11     6     7    1
    12     6    11    1
    13     7     8    1
    14     7     9    1
    15     8    13    1
    16     9    10    1
    17     9    12    1
    18    10    11    1
    19    10     5    1
    20    12    14    1
    21     5     4    1
    22     4     1    1
    23     1     2    2
    24     1     3    1
    25     1    24    1
    26    24    25    1
    27    25    26    2
    28    25    27    1
    29    25    28    1
    30    28    29    1
    31    29    30    1
    32    29    37    1
    33    30    31    1
    34    30    34    1
    35    31    32    1
    36    31    35    1
    37    32    33    1
    38    32    36    1
    39    33    41    1
    40    33    37    1
    41    41    42    1
    42    34    38    1
    43    35    39    1
    44    36    40    1
    45    42    43    1
@<TRIPOS>MOLECULE
GDU
 43 45 0 0 0
SMALL
GASTEIGER

@<TRIPOS>ATOM
      1 P          21.6614   73.3335   -8.2868 P.3     1  UNL1        0.2189
      2 O          20.7945   74.4289   -7.7989 O.2     1  UNL1       -0.5170
      3 O          22.5081   72.7309   -7.0568 O.3     1  UNL1       -0.4371
      4 O          20.7511   72.1743   -8.9305 O.3     1  UNL1       -0.3112
      5 C          19.4433   72.7227   -9.1023 C.3     1  UNL1        0.1811
      6 C          18.0062   70.8126   -6.4164 C.3     1  UNL1        0.2383
      7 C          17.2702   72.1758   -6.3617 C.3     1  UNL1        0.1895
      8 O          15.9364   72.0159   -5.8732 O.3     1  UNL1       -0.3779
      9 C          17.2657   72.6027   -7.8526 C.3     1  UNL1        0.1713
     10 C          18.4087   71.7832   -8.4800 C.3     1  UNL1        0.1764
     11 O          19.0169   71.0158   -7.4267 O.3     1  UNL1       -0.3308
     12 O          16.0148   72.2770   -8.4618 O.3     1  UNL1       -0.3794
     13 H          15.5355   72.8963   -5.8635 H       1  UNL1        0.2106
     14 H          15.3346   72.7749   -7.9883 H       1  UNL1        0.2105
     15 N          18.6225   70.5046   -5.1249 N.ar    1  UNL1       -0.2551
     16 C          17.9250   69.8236   -4.1986 C.ar    1  UNL1        0.3323
     17 N          18.4695   69.5244   -3.0045 N.ar    1  UNL1       -0.2743
     18 C          19.7258   69.9135   -2.7135 C.ar    1  UNL1        0.2626
     19 C          20.4704   70.6365   -3.6773 C.ar    1  UNL1        0.0795
     20 C          19.9017   70.9195   -4.8685 C.ar    1  UNL1        0.0869
     21 O          16.7908   69.4656   -4.4469 O.2     1  UNL1       -0.2464
     22 O          20.2179   69.6473   -1.6311 O.2     1  UNL1       -0.2670
     23 H          17.9531   69.0285   -2.3495 H       1  UNL1        0.1734
     24 O          22.6715   73.9061   -9.4023 O.3     1  UNL1       -0.2703
     25 P          23.2644   75.2883   -8.8295 P.3     1  UNL1        0.2208
     26 O          22.3656   76.4026   -9.2029 O.2     1  UNL1       -0.5170
     27 O          23.3725   75.2015   -7.2248 O.3     1  UNL1       -0.4371
     28 O          24.7263   75.5451   -9.4515 O.3     1  UNL1       -0.2858
     29 C          25.3975   76.4500   -8.5738 C.3     1  UNL1        0.2704
     30 C          25.7653   77.7225   -9.3385 C.3     1  UNL1        0.1967
     31 C          26.6634   77.3509  -10.5224 C.3     1  UNL1        0.1715
     32 C          27.8528   76.5378   -9.9988 C.3     1  UNL1        0.1694
     33 C          27.3262   75.3531   -9.1851 C.3     1  UNL1        0.1761
     34 O          24.5763   78.3536   -9.8175 O.3     1  UNL1       -0.3775
     35 O          27.1350   78.5402  -11.1593 O.3     1  UNL1       -0.3794
     36 O          28.6706   77.3662   -9.1713 O.3     1  UNL1       -0.3794
     37 O          26.5780   75.8310   -8.0680 O.3     1  UNL1       -0.3258
     38 H          24.0394   78.5628   -9.0411 H       1  UNL1        0.2106
     39 H          26.3557   79.0239  -11.4609 H       1  UNL1        0.2105
     40 H          28.9740   78.0996   -9.7222 H       1  UNL1        0.2105
     41 C          28.5054   74.5149   -8.6861 C.3     1  UNL1        0.1693
     42 O          29.5506   74.5376   -9.6598 O.3     1  UNL1       -0.3794
     43 H          30.2730   73.9998   -9.3075 H       1  UNL1        0.2105
@<TRIPOS>BOND
     1    15    16   ar
     2    15    20   ar
     3    15     6    1
     4    16    17   ar
     5    16    21    2
     6    17    18   ar
     7    17    23    1
     8    18    19   ar
     9    18    22    2
    10    19    20   ar
    11     6     7    1
    12     6    11    1
    13     7     8    1
    14     7     9    1
    15     8    13    1
    16     9    10    1
    17     9    12    1
    18    10    11    1
    19    10     5    1
    20    12    14    1
    21     5     4    1
    22     4     1    1
    23     1     2    2
    24     1     3    1
    25     1    24    1
    26    24    25    1
    27    25    26    2
    28    25    27    1
    29    25    28    1
    30    28    29    1
    31    29    30    1
    32    29    37    1
    33    30    31    1
    34    30    34    1
    35    31    32    1
    36    31    35    1
    37    32    33    1
    38    32    36    1
    39    33    41    1
    40    33    37    1
    41    41    42    1
    42    34    38    1
    43    35    39    1
    44    36    40    1
    45    42    43    1
@<TRIPOS>MOLECULE
GDU
 43 45 0 0 0
SMALL
GASTEIGER

@<TRIPOS>ATOM
      1 P          21.8508   74.4968   -4.9192 P.3     1  UNL1        0.2189
      2 O          22.4118   73.5631   -5.9207 O.2     1  UNL1       -0.5170
      3 O          20.9665   75.6166   -5.6658 O.3     1  UNL1       -0.4371
      4 O          20.9251   73.6832   -3.8857 O.3     1  UNL1       -0.3112
      5 C          19.6054   74.2169   -4.0037 C.3     1  UNL1        0.1811
      6 C          18.2601   71.4503   -5.8647 C.3     1  UNL1        0.2383
      7 C          19.2364   70.7997   -4.8515 C.3     1  UNL1        0.1895
      8 O          18.7935   69.4910   -4.4849 O.3     1  UNL1       -0.3779
      9 C          19.1485   71.7713   -3.6459 C.3     1  UNL1        0.1713
     10 C          18.6143   73.0797   -4.2578 C.3     1  UNL1        0.1764
     11 O          18.4688   72.8656   -5.6725 O.3     1  UNL1       -0.3308
     12 O          18.2442   71.2657   -2.6617 O.3     1  UNL1       -0.3794
     13 H          19.4413   69.1433   -3.8562 H       1  UNL1        0.2106
     14 H          18.6024   70.4197   -2.3606 H       1  UNL1        0.2105
     15 N          18.5993   71.0603   -7.2343 N.ar    1  UNL1       -0.2551
     16 C          17.6280   70.6588   -8.0732 C.ar    1  UNL1        0.3323
     17 N          17.9126   70.2983   -9.3385 N.ar    1  UNL1       -0.2743
     18 C          19.1835   70.3249   -9.7837 C.ar    1  UNL1        0.2626
     19 C          20.2176   70.7402   -8.9094 C.ar    1  UNL1        0.0795
     20 C          19.9040   71.1005   -7.6468 C.ar    1  UNL1        0.0869
     21 O          16.4768   70.6300   -7.6861 O.2     1  UNL1       -0.2464
     22 O          19.4426   69.9943  -10.9274 O.2     1  UNL1       -0.2670
     23 H          17.1985   70.0152   -9.9316 H       1  UNL1        0.1734
     24 O          23.0525   75.2096   -4.1190 O.3     1  UNL1       -0.2703
     25 P          23.7186   74.0856   -3.1794 P.3     1  UNL1        0.2208
     26 O          24.2211   72.9757   -4.0188 O.2     1  UNL1       -0.5170
     27 O          24.9428   74.7316   -2.3559 O.3     1  UNL1       -0.4371
     28 O          22.6172   73.5243   -2.1489 O.3     1  UNL1       -0.2858
     29 C          23.3015   72.6616   -1.2394 C.3     1  UNL1        0.2704
     30 C          22.7261   71.2486   -1.3473 C.3     1  UNL1        0.1967
     31 C          21.2288   71.2942   -1.0269 C.3     1  UNL1        0.1715
     32 C          21.0394   71.9734    0.3341 C.3     1  UNL1        0.1694
     33 C          21.7417   73.3334    0.3137 C.3     1  UNL1        0.1761
     34 O          22.9184   70.7535   -2.6737 O.3     1  UNL1       -0.3775
     35 O          20.7073   69.9644   -0.9793 O.3     1  UNL1       -0.3794
     36 O          21.6032   71.1544    1.3594 O.3     1  UNL1       -0.3794
     37 O          23.1390   73.1502    0.0900 O.3     1  UNL1       -0.3258
     38 H          23.8718   70.7489   -2.8342 H       1  UNL1        0.2106
     39 H          20.8584   69.5732   -1.8490 H       1  UNL1        0.2105
     40 H          21.1359   70.3094    1.3313 H       1  UNL1        0.2105
     41 C          21.5296   74.0352    1.6570 C.3     1  UNL1        0.1693
     42 O          20.6922   75.1774    1.4697 O.3     1  UNL1       -0.3794
     43 H          20.5830   75.5897    2.3376 H       1  UNL1        0.2105
@<TRIPOS>BOND
     1    15    16   ar
     2    15    20   ar
     3    15     6    1
     4    16    17   ar
     5    16    21    2
     6    17    18   ar
     7    17    23    1
     8    18    19   ar
     9    18    22    2
    10    19    20   ar
    11     6     7    1
    12     6    11    1
    13     7     8    1
    14     7     9    1
    15     8    13    1
    16     9    10    1
    17     9    12    1
    18    10    11    1
    19    10     5    1
    20    12    14    1
    21     5     4    1
    22     4     1    1
    23     1     2    2
    24     1     3    1
    25     1    24    1
    26    24    25    1
    27    25    26    2
    28    25    27    1
    29    25    28    1
    30    28    29    1
    31    29    30    1
    32    29    37    1
    33    30    31    1
    34    30    34    1
    35    31    32    1
    36    31    35    1
    37    32    33    1
    38    32    36    1
    39    33    41    1
    40    33    37    1
    41    41    42    1
    42    34    38    1
    43    35    39    1
    44    36    40    1
    45    42    43    1
@<TRIPOS>MOLECULE
GDU
 43 45 0 0 0
SMALL
GASTEIGER

@<TRIPOS>ATOM
      1 P          22.3354   72.3136   -0.9823 P.3     1  UNL1        0.2189
      2 O          23.3641   73.2492   -1.4883 O.2     1  UNL1       -0.5170
      3 O          23.0135   70.8858   -0.6747 O.3     1  UNL1       -0.4371
      4 O          21.6906   72.9035    0.3679 O.3     1  UNL1       -0.3112
      5 C          21.4542   71.7920    1.2335 C.3     1  UNL1        0.1811
      6 C          23.1571   73.6760    3.7787 C.3     1  UNL1        0.2383
      7 C          21.8697   74.4892    3.4884 C.3     1  UNL1        0.1895
      8 O          21.4294   75.1820    4.6587 O.3     1  UNL1       -0.3779
      9 C          20.8644   73.3761    3.0937 C.3     1  UNL1        0.1713
     10 C          21.7594   72.1940    2.6776 C.3     1  UNL1        0.1764
     11 O          23.1257   72.6295    2.7851 O.3     1  UNL1       -0.3308
     12 O          20.0455   73.0235    4.2104 O.3     1  UNL1       -0.3794
     13 H          20.6292   75.6661    4.4116 H       1  UNL1        0.2106
     14 H          19.5552   73.8184    4.4602 H       1  UNL1        0.2105
     15 N          24.3468   74.5120    3.6100 N.ar    1  UNL1       -0.2551
     16 C          24.5770   75.1139    2.4297 C.ar    1  UNL1        0.3323
     17 N          25.6615   75.8905    2.2495 N.ar    1  UNL1       -0.2743
     18 C          26.5435   76.0700    3.2515 C.ar    1  UNL1        0.2626
     19 C          26.3169   75.4376    4.4985 C.ar    1  UNL1        0.0795
     20 C          25.2191   74.6675    4.6536 C.ar    1  UNL1        0.0869
     21 O          23.7901   74.9617    1.5167 O.2     1  UNL1       -0.2464
     22 O          27.5279   76.7690    3.0878 O.2     1  UNL1       -0.2670
     23 H          25.8097   76.3207    1.3923 H       1  UNL1        0.1734
     24 O          21.1842   72.1313   -2.0932 O.3     1  UNL1       -0.2703
     25 P          21.3954   70.6772   -2.7497 P.3     1  UNL1        0.2208
     26 O          22.7677   70.5765   -3.2937 O.2     1  UNL1       -0.5170
     27 O          21.1800   69.5445   -1.6252 O.3     1  UNL1       -0.4371
     28 O          20.3297   70.4631   -3.9364 O.3     1  UNL1       -0.2858
     29 C          19.1442   71.1659   -3.5614 C.3     1  UNL1        0.2704
     30 C          17.9792   70.1803   -3.4581 C.3     1  UNL1        0.1967
     31 C          17.7915   69.4866   -4.8108 C.3     1  UNL1        0.1715
     32 C          17.6440   70.5596   -5.8955 C.3     1  UNL1        0.1694
     33 C          18.8365   71.5159   -5.8151 C.3     1  UNL1        0.1761
     34 O          18.2649   69.2050   -2.4539 O.3     1  UNL1       -0.3775
     35 O          16.6173   68.6728   -4.7743 O.3     1  UNL1       -0.3794
     36 O          16.4301   71.2835   -5.6896 O.3     1  UNL1       -0.3794
     37 O          18.8526   72.1592   -4.5416 O.3     1  UNL1       -0.3258
     38 H          18.3823   69.6859   -1.6233 H       1  UNL1        0.2106
     39 H          16.7492   68.0226   -4.0727 H       1  UNL1        0.2105
     40 H          15.7094   70.6423   -5.7428 H       1  UNL1        0.2105
     41 C          18.7165   72.5717   -6.9165 C.3     1  UNL1        0.1693
     42 O          17.9650   72.0372   -8.0076 O.3     1  UNL1       -0.3794
     43 H          17.9121   72.7322   -8.6780 H       1  UNL1        0.2105
@<TRIPOS>BOND
     1    15    16   ar
     2    15    20   ar
     3    15     6    1
     4    16    17   ar
     5    16    21    2
     6    17    18   ar
     7    17    23    1
     8    18    19   ar
     9    18    22    2
    10    19    20   ar
    11     6     7    1
    12     6    11    1
    13     7     8    1
    14     7     9    1
    15     8    13    1
    16     9    10    1
    17     9    12    1
    18    10    11    1
    19    10     5    1
    20    12    14    1
    21     5     4    1
    22     4     1    1
    23     1     2    2
    24     1     3    1
    25     1    24    1
    26    24    25    1
    27    25    26    2
    28    25    27    1
    29    25    28    1
    30    28    29    1
    31    29    30    1
    32    29    37    1
    33    30    31    1
    34    30    34    1
    35    31    32    1
    36    31    35    1
    37    32    33    1
    38    32    36    1
    39    33    41    1
    40    33    37    1
    41    41    42    1
    42    34    38    1
    43    35    39    1
    44    36    40    1
    45    42    43    1
@<TRIPOS>MOLECULE
GDU
 43 45 0 0 0
SMALL
GASTEIGER

@<TRIPOS>ATOM
      1 P          21.9965   70.9864   -2.4576 P.3     1  UNL1        0.2189
      2 O          21.0318   72.0998   -2.5957 O.2     1  UNL1       -0.5170
      3 O          23.1195   71.1039   -3.6057 O.3     1  UNL1       -0.4371
      4 O          22.6976   71.0594   -1.0119 O.3     1  UNL1       -0.3112
      5 C          21.6505   71.2058   -0.0512 C.3     1  UNL1        0.1811
      6 C          21.5833   74.0889    2.0960 C.3     1  UNL1        0.2383
      7 C          23.0102   74.0880    1.4903 C.3     1  UNL1        0.1895
      8 O          23.5106   75.4209    1.3623 O.3     1  UNL1       -0.3779
      9 C          22.7712   73.4508    0.0967 C.3     1  UNL1        0.1713
     10 C          21.4419   72.6898    0.2562 C.3     1  UNL1        0.1764
     11 O          21.0145   72.8506    1.6199 O.3     1  UNL1       -0.3308
     12 O          22.6578   74.4649   -0.9036 O.3     1  UNL1       -0.3794
     13 H          24.3973   75.3505    0.9818 H       1  UNL1        0.2106
     14 H          23.4982   74.9429   -0.9143 H       1  UNL1        0.2105
     15 N          21.6416   74.1010    3.5587 N.ar    1  UNL1       -0.2551
     16 C          21.9369   72.9701    4.2236 C.ar    1  UNL1        0.3323
     17 N          22.0003   72.9550    5.5681 N.ar    1  UNL1       -0.2743
     18 C          21.7577   74.0768    6.2729 C.ar    1  UNL1        0.2626
     19 C          21.4397   75.2741    5.5861 C.ar    1  UNL1        0.0795
     20 C          21.3870   75.2624    4.2372 C.ar    1  UNL1        0.0869
     21 O          22.1586   71.9504    3.6014 O.2     1  UNL1       -0.2464
     22 O          21.8102   74.0630    7.4901 O.2     1  UNL1       -0.2670
     23 H          22.2191   72.1309    6.0315 H       1  UNL1        0.1734
     24 O          21.2209   69.5835   -2.6091 O.3     1  UNL1       -0.2703
     25 P          19.6922   69.9323   -2.9717 P.3     1  UNL1        0.2208
     26 O          18.8216   68.8035   -2.5756 O.2     1  UNL1       -0.5170
     27 O          19.2424   71.2602   -2.1789 O.3     1  UNL1       -0.4371
     28 O          19.5592   70.1837   -4.5558 O.3     1  UNL1       -0.2858
     29 C          18.6942   71.3072   -4.7265 C.3     1  UNL1        0.2704
     30 C          17.2845   70.8180   -5.0622 C.3     1  UNL1        0.1967
     31 C          17.3397   69.9785   -6.3423 C.3     1  UNL1        0.1715
     32 C          18.0228   70.8025   -7.4396 C.3     1  UNL1        0.1694
     33 C          19.3784   71.2915   -6.9237 C.3     1  UNL1        0.1761
     34 O          16.7856   70.0209   -3.9865 O.3     1  UNL1       -0.3775
     35 O          16.0132   69.6372   -6.7503 O.3     1  UNL1       -0.3794
     36 O          17.2024   71.9219   -7.7771 O.3     1  UNL1       -0.3794
     37 O          19.1864   72.1275   -5.7835 O.3     1  UNL1       -0.3258
     38 H          16.7749   70.5862   -3.2021 H       1  UNL1        0.2106
     39 H          15.6194   69.1321   -6.0277 H       1  UNL1        0.2105
     40 H          16.3602   71.5673   -8.0904 H       1  UNL1        0.2105
     41 C          20.0842   72.0870   -8.0243 C.3     1  UNL1        0.1693
     42 O          21.4936   71.8698   -7.9386 O.3     1  UNL1       -0.3794
     43 H          21.9000   72.3866   -8.6478 H       1  UNL1        0.2105
@<TRIPOS>BOND
     1    15    16   ar
     2    15    20   ar
     3    15     6    1
     4    16    17   ar
     5    16    21    2
     6    17    18   ar
     7    17    23    1
     8    18    19   ar
     9    18    22    2
    10    19    20   ar
    11     6     7    1
    12     6    11    1
    13     7     8    1
    14     7     9    1
    15     8    13    1
    16     9    10    1
    17     9    12    1
    18    10    11    1
    19    10     5    1
    20    12    14    1
    21     5     4    1
    22     4     1    1
    23     1     2    2
    24     1     3    1
    25     1    24    1
    26    24    25    1
    27    25    26    2
    28    25    27    1
    29    25    28    1
    30    28    29    1
    31    29    30    1
    32    29    37    1
    33    30    31    1
    34    30    34    1
    35    31    32    1
    36    31    35    1
    37    32    33    1
    38    32    36    1
    39    33    41    1
    40    33    37    1
    41    41    42    1
    42    34    38    1
    43    35    39    1
    44    36    40    1
    45    42    43    1
@<TRIPOS>MOLECULE
GDU
 43 45 0 0 0
SMALL
GASTEIGER

@<TRIPOS>ATOM
      1 P          21.7600   73.8905   -6.4030 P.3     1  UNL1        0.2189
      2 O          20.3887   73.6068   -6.8811 O.2     1  UNL1       -0.5170
      3 O          22.6808   72.5857   -6.6094 O.3     1  UNL1       -0.4371
      4 O          22.3763   75.1196   -7.2374 O.3     1  UNL1       -0.3112
      5 C          22.1864   74.8172   -8.6206 C.3     1  UNL1        0.1811
      6 C          24.4955   74.5178  -11.3602 C.3     1  UNL1        0.2383
      7 C          24.7929   75.9120  -10.7513 C.3     1  UNL1        0.1895
      8 O          26.1695   76.2586  -10.9189 O.3     1  UNL1       -0.3779
      9 C          24.4566   75.6908   -9.2536 C.3     1  UNL1        0.1713
     10 C          23.5315   74.4597   -9.2556 C.3     1  UNL1        0.1764
     11 O          23.3364   74.0698  -10.6260 O.3     1  UNL1       -0.3308
     12 O          25.6470   75.4292   -8.5076 O.3     1  UNL1       -0.3794
     13 H          26.2875   77.1324  -10.5209 H       1  UNL1        0.2106
     14 H          26.2089   76.2113   -8.5935 H       1  UNL1        0.2105
     15 N          24.1903   74.6303  -12.7874 N.ar    1  UNL1       -0.2551
     16 C          24.1174   73.5206  -13.5433 C.ar    1  UNL1        0.3323
     17 N          23.8349   73.5961  -14.8572 N.ar    1  UNL1       -0.2743
     18 C          23.6293   74.7925  -15.4408 C.ar    1  UNL1        0.2626
     19 C          23.7086   75.9704  -14.6582 C.ar    1  UNL1        0.0795
     20 C          23.9893   75.8658  -13.3419 C.ar    1  UNL1        0.0869
     21 O          24.3000   72.4342  -13.0308 O.2     1  UNL1       -0.2464
     22 O          23.3782   74.8622  -16.6310 O.2     1  UNL1       -0.2670
     23 H          23.7820   72.7846  -15.3867 H       1  UNL1        0.1734
     24 O          21.7141   74.2712   -4.8392 O.3     1  UNL1       -0.2703
     25 P          22.1316   72.9478   -4.0243 P.3     1  UNL1        0.2208
     26 O          23.5097   72.5556   -4.3934 O.2     1  UNL1       -0.5170
     27 O          22.0650   73.2480   -2.4433 O.3     1  UNL1       -0.4371
     28 O          21.1173   71.7516   -4.3852 O.3     1  UNL1       -0.2858
     29 C          20.2537   71.5860   -3.2598 C.3     1  UNL1        0.2704
     30 C          20.2136   70.1098   -2.8616 C.3     1  UNL1        0.1967
     31 C          19.7144   69.2856   -4.0524 C.3     1  UNL1        0.1715
     32 C          18.3790   69.8696   -4.5271 C.3     1  UNL1        0.1694
     33 C          18.5590   71.3648   -4.8011 C.3     1  UNL1        0.1761
     34 O          21.5249   69.6774   -2.4944 O.3     1  UNL1       -0.3775
     35 O          19.5313   67.9259   -3.6521 O.3     1  UNL1       -0.3794
     36 O          17.3882   69.6800   -3.5160 O.3     1  UNL1       -0.3794
     37 O          18.9427   72.0315   -3.5994 O.3     1  UNL1       -0.3258
     38 H          21.8010   70.2267   -1.7482 H       1  UNL1        0.2106
     39 H          20.3907   67.6046   -3.3511 H       1  UNL1        0.2105
     40 H          17.3130   68.7275   -3.3729 H       1  UNL1        0.2105
     41 C          17.2396   71.9509   -5.3087 C.3     1  UNL1        0.1693
     42 O          16.3853   72.2310   -4.1984 O.3     1  UNL1       -0.3794
     43 H          15.5673   72.5985   -4.5603 H       1  UNL1        0.2105
@<TRIPOS>BOND
     1    15    16   ar
     2    15    20   ar
     3    15     6    1
     4    16    17   ar
     5    16    21    2
     6    17    18   ar
     7    17    23    1
     8    18    19   ar
     9    18    22    2
    10    19    20   ar
    11     6     7    1
    12     6    11    1
    13     7     8    1
    14     7     9    1
    15     8    13    1
    16     9    10    1
    17     9    12    1
    18    10    11    1
    19    10     5    1
    20    12    14    1
    21     5     4    1
    22     4     1    1
    23     1     2    2
    24     1     3    1
    25     1    24    1
    26    24    25    1
    27    25    26    2
    28    25    27    1
    29    25    28    1
    30    28    29    1
    31    29    30    1
    32    29    37    1
    33    30    31    1
    34    30    34    1
    35    31    32    1
    36    31    35    1
    37    32    33    1
    38    32    36    1
    39    33    41    1
    40    33    37    1
    41    41    42    1
    42    34    38    1
    43    35    39    1
    44    36    40    1
    45    42    43    1
@<TRIPOS>MOLECULE
GDU
 43 45 0 0 0
SMALL
GASTEIGER

@<TRIPOS>ATOM
      1 P          18.2890   70.0478   -3.3318 P.3     1  UNL1        0.2189
      2 O          18.8295   69.1727   -2.2680 O.2     1  UNL1       -0.5170
      3 O          16.9709   70.7983   -2.7911 O.3     1  UNL1       -0.4371
      4 O          19.3965   71.1387   -3.7442 O.3     1  UNL1       -0.3112
      5 C          19.5965   71.9765   -2.6047 C.3     1  UNL1        0.1811
      6 C          22.4990   72.3778   -0.5210 C.3     1  UNL1        0.2383
      7 C          22.3803   70.8467   -0.7323 C.3     1  UNL1        0.1895
      8 O          23.6686   70.2277   -0.7115 O.3     1  UNL1       -0.3779
      9 C          21.7487   70.7618   -2.1461 C.3     1  UNL1        0.1713
     10 C          21.0954   72.1417   -2.3477 C.3     1  UNL1        0.1764
     11 O          21.3039   72.8972   -1.1418 O.3     1  UNL1       -0.3308
     12 O          22.7577   70.5299   -3.1310 O.3     1  UNL1       -0.3794
     13 H          23.5252   69.2807   -0.8474 H       1  UNL1        0.2106
     14 H          23.1685   69.6814   -2.9167 H       1  UNL1        0.2105
     15 N          22.5223   72.7035    0.9059 N.ar    1  UNL1       -0.2551
     16 C          22.0198   71.8311    1.7974 C.ar    1  UNL1        0.3323
     17 N          22.0322   72.1047    3.1153 N.ar    1  UNL1       -0.2743
     18 C          22.5423   73.2680    3.5635 C.ar    1  UNL1        0.2626
     19 C          23.0698   74.1990    2.6355 C.ar    1  UNL1        0.0795
     20 C          23.0488   73.8976    1.3198 C.ar    1  UNL1        0.0869
     21 O          21.5568   70.7775    1.4081 O.2     1  UNL1       -0.2464
     22 O          22.5496   73.5186    4.7558 O.2     1  UNL1       -0.2670
     23 H          21.6692   71.4617    3.7449 H       1  UNL1        0.1734
     24 O          17.9078   69.1559   -4.6169 O.3     1  UNL1       -0.2703
     25 P          17.2085   70.1424   -5.6788 P.3     1  UNL1        0.2208
     26 O          16.2464   69.3778   -6.5029 O.2     1  UNL1       -0.5170
     27 O          16.4294   71.3121   -4.8920 O.3     1  UNL1       -0.4371
     28 O          18.3323   70.7932   -6.6294 O.3     1  UNL1       -0.2858
     29 C          17.9188   70.5648   -7.9772 C.3     1  UNL1        0.2704
     30 C          19.1247   70.6959   -8.9089 C.3     1  UNL1        0.1967
     31 C          19.7223   72.0981   -8.7566 C.3     1  UNL1        0.1715
     32 C          18.6115   73.1309   -8.9782 C.3     1  UNL1        0.1694
     33 C          17.4445   72.8160   -8.0391 C.3     1  UNL1        0.1761
     34 O          20.1053   69.7160   -8.5633 O.3     1  UNL1       -0.3775
     35 O          20.7567   72.2868   -9.7246 O.3     1  UNL1       -0.3794
     36 O          18.1685   73.0726  -10.3348 O.3     1  UNL1       -0.3794
     37 O          16.9239   71.5210   -8.3357 O.3     1  UNL1       -0.3258
     38 H          19.6843   68.8516   -8.6664 H       1  UNL1        0.2106
     39 H          21.4250   71.6108   -9.5553 H       1  UNL1        0.2105
     40 H          18.9350   73.2711  -10.8883 H       1  UNL1        0.2105
     41 C          16.3435   73.8620   -8.2280 C.3     1  UNL1        0.1693
     42 O          15.3893   73.3820   -9.1767 O.3     1  UNL1       -0.3794
     43 H          14.7139   74.0684   -9.2662 H       1  UNL1        0.2105
@<TRIPOS>BOND
     1    15    16   ar
     2    15    20   ar
     3    15     6    1
     4    16    17   ar
     5    16    21    2
     6    17    18   ar
     7    17    23    1
     8    18    19   ar
     9    18    22    2
    10    19    20   ar
    11     6     7    1
    12     6    11    1
    13     7     8    1
    14     7     9    1
    15     8    13    1
    16     9    10    1
    17     9    12    1
    18    10    11    1
    19    10     5    1
    20    12    14    1
    21     5     4    1
    22     4     1    1
    23     1     2    2
    24     1     3    1
    25     1    24    1
    26    24    25    1
    27    25    26    2
    28    25    27    1
    29    25    28    1
    30    28    29    1
    31    29    30    1
    32    29    37    1
    33    30    31    1
    34    30    34    1
    35    31    32    1
    36    31    35    1
    37    32    33    1
    38    32    36    1
    39    33    41    1
    40    33    37    1
    41    41    42    1
    42    34    38    1
    43    35    39    1
    44    36    40    1
    45    42    43    1
@<TRIPOS>MOLECULE
GDU
 43 45 0 0 0
SMALL
GASTEIGER

@<TRIPOS>ATOM
      1 P          23.0024   74.3936   -4.4431 P.3     1  UNL1        0.2189
      2 O          23.7377   75.3218   -5.3304 O.2     1  UNL1       -0.5170
      3 O          23.7026   72.9442   -4.4842 O.3     1  UNL1       -0.4371
      4 O          23.0257   74.9584   -2.9374 O.3     1  UNL1       -0.3112
      5 C          21.9917   74.2782   -2.2242 C.3     1  UNL1        0.1811
      6 C          22.4083   72.4897    0.8669 C.3     1  UNL1        0.2383
      7 C          21.3442   71.6759    0.0869 C.3     1  UNL1        0.1895
      8 O          21.4221   70.2871    0.4162 O.3     1  UNL1       -0.3779
      9 C          21.7644   71.9195   -1.3860 C.3     1  UNL1        0.1713
     10 C          22.6100   73.2051   -1.3262 C.3     1  UNL1        0.1764
     11 O          22.6145   73.6546    0.0398 O.3     1  UNL1       -0.3308
     12 O          22.5419   70.8233   -1.8715 O.3     1  UNL1       -0.3794
     13 H          20.7372   69.8393   -0.0997 H       1  UNL1        0.2106
     14 H          21.9779   70.0393   -1.8291 H       1  UNL1        0.2105
     15 N          21.9014   72.8760    2.1847 N.ar    1  UNL1       -0.2551
     16 C          22.1665   72.1043    3.2536 C.ar    1  UNL1        0.3323
     17 N          21.7153   72.4388    4.4769 N.ar    1  UNL1       -0.2743
     18 C          20.9784   73.5531    4.6487 C.ar    1  UNL1        0.2626
     19 C          20.6864   74.3725    3.5309 C.ar    1  UNL1        0.0795
     20 C          21.1549   74.0160    2.3160 C.ar    1  UNL1        0.0869
     21 O          22.8304   71.0964    3.1143 O.2     1  UNL1       -0.2464
     22 O          20.5655   73.8541    5.7548 O.2     1  UNL1       -0.2670
     23 H          21.9198   71.8724    5.2380 H       1  UNL1        0.1734
     24 O          21.4782   74.2662   -4.9463 O.3     1  UNL1       -0.2703
     25 P          21.3304   72.8139   -5.6238 P.3     1  UNL1        0.2208
     26 O          22.0981   72.7791   -6.8881 O.2     1  UNL1       -0.5170
     27 O          21.9017   71.6924   -4.6187 O.3     1  UNL1       -0.4371
     28 O          19.7781   72.5184   -5.9290 O.3     1  UNL1       -0.2858
     29 C          19.6383   71.1009   -6.0338 C.3     1  UNL1        0.2704
     30 C          18.9660   70.7525   -7.3627 C.3     1  UNL1        0.1967
     31 C          17.5969   71.4369   -7.4233 C.3     1  UNL1        0.1715
     32 C          16.8018   71.0543   -6.1699 C.3     1  UNL1        0.1694
     33 C          17.6382   71.3820   -4.9306 C.3     1  UNL1        0.1761
     34 O          19.7794   71.2090   -8.4449 O.3     1  UNL1       -0.3775
     35 O          16.8951   71.0043   -8.5907 O.3     1  UNL1       -0.3794
     36 O          16.5083   69.6568   -6.1984 O.3     1  UNL1       -0.3794
     37 O          18.8456   70.6219   -4.9500 O.3     1  UNL1       -0.3258
     38 H          20.6312   70.7589   -8.3628 H       1  UNL1        0.2106
     39 H          17.4355   71.2542   -9.3508 H       1  UNL1        0.2105
     40 H          15.9871   69.4965   -6.9959 H       1  UNL1        0.2105
     41 C          16.8395   71.0355   -3.6721 C.3     1  UNL1        0.1693
     42 O          17.6485   70.2471   -2.7975 O.3     1  UNL1       -0.3794
     43 H          17.1099   70.0513   -2.0185 H       1  UNL1        0.2105
@<TRIPOS>BOND
     1    15    16   ar
     2    15    20   ar
     3    15     6    1
     4    16    17   ar
     5    16    21    2
     6    17    18   ar
     7    17    23    1
     8    18    19   ar
     9    18    22    2
    10    19    20   ar
    11     6     7    1
    12     6    11    1
    13     7     8    1
    14     7     9    1
    15     8    13    1
    16     9    10    1
    17     9    12    1
    18    10    11    1
    19    10     5    1
    20    12    14    1
    21     5     4    1
    22     4     1    1
    23     1     2    2
    24     1     3    1
    25     1    24    1
    26    24    25    1
    27    25    26    2
    28    25    27    1
    29    25    28    1
    30    28    29    1
    31    29    30    1
    32    29    37    1
    33    30    31    1
    34    30    34    1
    35    31    32    1
    36    31    35    1
    37    32    33    1
    38    32    36    1
    39    33    41    1
    40    33    37    1
    41    41    42    1
    42    34    38    1
    43    35    39    1
    44    36    40    1
    45    42    43    1
@<TRIPOS>MOLECULE
GDU
 43 45 0 0 0
SMALL
GASTEIGER

@<TRIPOS>ATOM
      1 P          22.7600   73.0225   -4.1815 P.3     1  UNL1        0.2189
      2 O          23.4741   71.9574   -3.4431 O.2     1  UNL1       -0.5170
      3 O          22.5067   72.5464   -5.6987 O.3     1  UNL1       -0.4371
      4 O          21.3485   73.3165   -3.4686 O.3     1  UNL1       -0.3112
      5 C          20.8478   72.0603   -3.0084 C.3     1  UNL1        0.1811
      6 C          18.3074   71.1469   -5.3831 C.3     1  UNL1        0.2383
      7 C          18.5250   69.8679   -4.5347 C.3     1  UNL1        0.1895
      8 O          17.3182   69.1077   -4.4397 O.3     1  UNL1       -0.3779
      9 C          18.9182   70.4564   -3.1548 C.3     1  UNL1        0.1713
     10 C          19.4037   71.8811   -3.4801 C.3     1  UNL1        0.1764
     11 O          19.3320   72.0453   -4.9070 O.3     1  UNL1       -0.3308
     12 O          17.7843   70.4932   -2.2859 O.3     1  UNL1       -0.3794
     13 H          17.5206   68.3293   -3.9022 H       1  UNL1        0.2106
     14 H          17.4918   69.5793   -2.1683 H       1  UNL1        0.2105
     15 N          18.4925   70.8617   -6.8069 N.ar    1  UNL1       -0.2551
     16 C          17.4216   70.6195   -7.5832 C.ar    1  UNL1        0.3323
     17 N          17.5639   70.3582   -8.8960 N.ar    1  UNL1       -0.2743
     18 C          18.7895   70.3252   -9.4537 C.ar    1  UNL1        0.2626
     19 C          19.9272   70.5727   -8.6470 C.ar    1  UNL1        0.0795
     20 C          19.7556   70.8364   -7.3342 C.ar    1  UNL1        0.0869
     21 O          16.3096   70.6463   -7.0944 O.2     1  UNL1       -0.2464
     22 O          18.9198   70.0840  -10.6409 O.2     1  UNL1       -0.2670
     23 H          16.7797   70.1899   -9.4422 H       1  UNL1        0.1734
     24 O          23.6514   74.3633   -4.1830 O.3     1  UNL1       -0.2703
     25 P          22.9492   75.3894   -5.2048 P.3     1  UNL1        0.2208
     26 O          21.5028   75.0896   -5.2883 O.2     1  UNL1       -0.5170
     27 O          23.1547   76.8971   -4.6768 O.3     1  UNL1       -0.4371
     28 O          23.6149   75.2371   -6.6621 O.3     1  UNL1       -0.2858
     29 C          22.6841   75.7761   -7.6018 C.3     1  UNL1        0.2704
     30 C          22.4044   74.7408   -8.6923 C.3     1  UNL1        0.1967
     31 C          23.7218   74.3767   -9.3840 C.3     1  UNL1        0.1715
     32 C          24.3948   75.6667   -9.8664 C.3     1  UNL1        0.1694
     33 C          24.5254   76.6317   -8.6853 C.3     1  UNL1        0.1761
     34 O          21.8307   73.5710   -8.1060 O.3     1  UNL1       -0.3775
     35 O          23.4585   73.5235  -10.4998 O.3     1  UNL1       -0.3794
     36 O          23.6015   76.2646  -10.8926 O.3     1  UNL1       -0.3794
     37 O          23.2297   76.9574   -8.1843 O.3     1  UNL1       -0.3258
     38 H          21.0097   73.8480   -7.6770 H       1  UNL1        0.2106
     39 H          23.0260   72.7334  -10.1520 H       1  UNL1        0.2105
     40 H          23.5417   75.6212  -11.6108 H       1  UNL1        0.2105
     41 C          25.2275   77.9101   -9.1488 C.3     1  UNL1        0.1693
     42 O          25.7643   78.5952   -8.0158 O.3     1  UNL1       -0.3794
     43 H          26.1977   79.3924   -8.3503 H       1  UNL1        0.2105
@<TRIPOS>BOND
     1    15    16   ar
     2    15    20   ar
     3    15     6    1
     4    16    17   ar
     5    16    21    2
     6    17    18   ar
     7    17    23    1
     8    18    19   ar
     9    18    22    2
    10    19    20   ar
    11     6     7    1
    12     6    11    1
    13     7     8    1
    14     7     9    1
    15     8    13    1
    16     9    10    1
    17     9    12    1
    18    10    11    1
    19    10     5    1
    20    12    14    1
    21     5     4    1
    22     4     1    1
    23     1     2    2
    24     1     3    1
    25     1    24    1
    26    24    25    1
    27    25    26    2
    28    25    27    1
    29    25    28    1
    30    28    29    1
    31    29    30    1
    32    29    37    1
    33    30    31    1
    34    30    34    1
    35    31    32    1
    36    31    35    1
    37    32    33    1
    38    32    36    1
    39    33    41    1
    40    33    37    1
    41    41    42    1
    42    34    38    1
    43    35    39    1
    44    36    40    1
    45    42    43    1
@<TRIPOS>MOLECULE
GDU
 43 45 0 0 0
SMALL
GASTEIGER

@<TRIPOS>ATOM
      1 P          22.6198   71.8432   -3.4359 P.3     1  UNL1        0.2189
      2 O          23.5895   72.8617   -3.8963 O.2     1  UNL1       -0.5170
      3 O          23.3944   70.4656   -3.1273 O.3     1  UNL1       -0.4371
      4 O          21.8918   72.3608   -2.0984 O.3     1  UNL1       -0.3112
      5 C          22.8480   73.1455   -1.3840 C.3     1  UNL1        0.1811
      6 C          22.6595   73.3564    2.2003 C.3     1  UNL1        0.2383
      7 C          21.2946   72.7584    1.7734 C.3     1  UNL1        0.1895
      8 O          20.7812   71.8872    2.7837 O.3     1  UNL1       -0.3779
      9 C          21.6733   71.9627    0.4972 C.3     1  UNL1        0.1713
     10 C          22.9975   72.6007    0.0377 C.3     1  UNL1        0.1764
     11 O          23.2946   73.6768    0.9443 O.3     1  UNL1       -0.3308
     12 O          21.8575   70.5799    0.8069 O.3     1  UNL1       -0.3794
     13 H          19.9348   71.5506    2.4579 H       1  UNL1        0.2106
     14 H          21.0122   70.2534    1.1439 H       1  UNL1        0.2105
     15 N          22.4671   74.5647    3.0040 N.ar    1  UNL1       -0.2551
     16 C          21.4026   75.3542    2.7766 C.ar    1  UNL1        0.3323
     17 N          21.2005   76.4689    3.5037 N.ar    1  UNL1       -0.2743
     18 C          22.0720   76.8180    4.4695 C.ar    1  UNL1        0.2626
     19 C          23.2009   75.9990    4.7163 C.ar    1  UNL1        0.0795
     20 C          23.3773   74.8844    3.9753 C.ar    1  UNL1        0.0869
     21 O          20.6076   75.0519    1.9091 O.2     1  UNL1       -0.2464
     22 O          21.8924   77.8293    5.1249 O.2     1  UNL1       -0.2670
     23 H          20.4245   77.0248    3.3288 H       1  UNL1        0.1734
     24 O          21.5198   71.5930   -4.5847 O.3     1  UNL1       -0.2703
     25 P          21.5083   72.9070   -5.5139 P.3     1  UNL1        0.2208
     26 O          21.5363   74.1150   -4.6600 O.2     1  UNL1       -0.5170
     27 O          22.8029   72.8977   -6.4721 O.3     1  UNL1       -0.4371
     28 O          20.1751   72.9165   -6.4153 O.3     1  UNL1       -0.2858
     29 C          20.5913   73.0950   -7.7698 C.3     1  UNL1        0.2704
     30 C          19.9376   74.3539   -8.3417 C.3     1  UNL1        0.1967
     31 C          18.4152   74.2069   -8.2586 C.3     1  UNL1        0.1715
     32 C          18.0116   72.8950   -8.9409 C.3     1  UNL1        0.1694
     33 C          18.8106   71.7456   -8.3217 C.3     1  UNL1        0.1761
     34 O          20.3518   75.4937   -7.5862 O.3     1  UNL1       -0.3775
     35 O          17.7896   75.3078   -8.9213 O.3     1  UNL1       -0.3794
     36 O          18.2904   72.9782  -10.3392 O.3     1  UNL1       -0.3794
     37 O          20.2050   71.9575   -8.5376 O.3     1  UNL1       -0.3258
     38 H          21.3146   75.5428   -7.6607 H       1  UNL1        0.2106
     39 H          18.0802   76.1092   -8.4679 H       1  UNL1        0.2105
     40 H          17.7719   73.7165  -10.6846 H       1  UNL1        0.2105
     41 C          18.3902   70.4258   -8.9724 C.3     1  UNL1        0.1693
     42 O          18.9258   70.3560  -10.2950 O.3     1  UNL1       -0.3794
     43 H          18.6392   69.5114  -10.6689 H       1  UNL1        0.2105
@<TRIPOS>BOND
     1    15    16   ar
     2    15    20   ar
     3    15     6    1
     4    16    17   ar
     5    16    21    2
     6    17    18   ar
     7    17    23    1
     8    18    19   ar
     9    18    22    2
    10    19    20   ar
    11     6     7    1
    12     6    11    1
    13     7     8    1
    14     7     9    1
    15     8    13    1
    16     9    10    1
    17     9    12    1
    18    10    11    1
    19    10     5    1
    20    12    14    1
    21     5     4    1
    22     4     1    1
    23     1     2    2
    24     1     3    1
    25     1    24    1
    26    24    25    1
    27    25    26    2
    28    25    27    1
    29    25    28    1
    30    28    29    1
    31    29    30    1
    32    29    37    1
    33    30    31    1
    34    30    34    1
    35    31    32    1
    36    31    35    1
    37    32    33    1
    38    32    36    1
    39    33    41    1
    40    33    37    1
    41    41    42    1
    42    34    38    1
    43    35    39    1
    44    36    40    1
    45    42    43    1
@<TRIPOS>MOLECULE
GDU
 43 45 0 0 0
SMALL
GASTEIGER

@<TRIPOS>ATOM
      1 P          18.5266   70.0033   -3.2741 P.3     1  UNL1        0.2189
      2 O          18.9998   69.1193   -2.1859 O.2     1  UNL1       -0.5170
      3 O          17.4261   71.0259   -2.6944 O.3     1  UNL1       -0.4371
      4 O          19.7686   70.8330   -3.8704 O.3     1  UNL1       -0.3112
      5 C          19.8958   72.0145   -3.0777 C.3     1  UNL1        0.1811
      6 C          22.5556   72.3948   -0.6886 C.3     1  UNL1        0.2383
      7 C          22.4894   70.8696   -0.9577 C.3     1  UNL1        0.1895
      8 O          23.7801   70.2710   -0.8201 O.3     1  UNL1       -0.3779
      9 C          22.0111   70.8203   -2.4322 C.3     1  UNL1        0.1713
     10 C          21.3560   72.1954   -2.6593 C.3     1  UNL1        0.1764
     11 O          21.4223   72.9147   -1.4157 O.3     1  UNL1       -0.3308
     12 O          23.1221   70.6366   -3.3118 O.3     1  UNL1       -0.3794
     13 H          23.6701   69.3267   -0.9991 H       1  UNL1        0.2106
     14 H          23.5246   69.7882   -3.0814 H       1  UNL1        0.2105
     15 N          22.4229   72.6745    0.7421 N.ar    1  UNL1       -0.2551
     16 C          21.8117   71.7830    1.5421 C.ar    1  UNL1        0.3323
     17 N          21.6797   72.0143    2.8615 N.ar    1  UNL1       -0.2743
     18 C          22.1519   73.1538    3.4026 C.ar    1  UNL1        0.2626
     19 C          22.7929   74.1046    2.5712 C.ar    1  UNL1        0.0795
     20 C          22.9156   73.8456    1.2520 C.ar    1  UNL1        0.0869
     21 O          21.3811   70.7504    1.0684 O.2     1  UNL1       -0.2464
     22 O          22.0286   73.3662    4.5960 O.2     1  UNL1       -0.2670
     23 H          21.2396   71.3579    3.4247 H       1  UNL1        0.1734
     24 O          17.8662   69.1109   -4.4403 O.3     1  UNL1       -0.2703
     25 P          17.2502   70.1343   -5.5188 P.3     1  UNL1        0.2208
     26 O          16.2609   69.4265   -6.3611 O.2     1  UNL1       -0.5170
     27 O          16.5272   71.3517   -4.7511 O.3     1  UNL1       -0.4371
     28 O          18.4309   70.7125   -6.4470 O.3     1  UNL1       -0.2858
     29 C          18.1197   72.0814   -6.7096 C.3     1  UNL1        0.2704
     30 C          17.7508   72.2457   -8.1848 C.3     1  UNL1        0.1967
     31 C          18.9291   71.7838   -9.0478 C.3     1  UNL1        0.1715
     32 C          20.1877   72.5368   -8.6023 C.3     1  UNL1        0.1694
     33 C          20.3729   72.3486   -7.0946 C.3     1  UNL1        0.1761
     34 O          16.5991   71.4540   -8.4813 O.3     1  UNL1       -0.3775
     35 O          18.6581   72.0676  -10.4220 O.3     1  UNL1       -0.3794
     36 O          20.0442   73.9261   -8.9012 O.3     1  UNL1       -0.3794
     37 O          19.2510   72.8920   -6.4003 O.3     1  UNL1       -0.3258
     38 H          15.8864   71.7741   -7.9117 H       1  UNL1        0.2106
     39 H          17.8549   71.5846  -10.6544 H       1  UNL1        0.2105
     40 H          19.9247   73.9958   -9.8573 H       1  UNL1        0.2105
     41 C          21.6463   73.0685   -6.6450 C.3     1  UNL1        0.1693
     42 O          22.7263   72.7075   -7.5078 O.3     1  UNL1       -0.3794
     43 H          23.5076   73.1817   -7.1916 H       1  UNL1        0.2105
@<TRIPOS>BOND
     1    15    16   ar
     2    15    20   ar
     3    15     6    1
     4    16    17   ar
     5    16    21    2
     6    17    18   ar
     7    17    23    1
     8    18    19   ar
     9    18    22    2
    10    19    20   ar
    11     6     7    1
    12     6    11    1
    13     7     8    1
    14     7     9    1
    15     8    13    1
    16     9    10    1
    17     9    12    1
    18    10    11    1
    19    10     5    1
    20    12    14    1
    21     5     4    1
    22     4     1    1
    23     1     2    2
    24     1     3    1
    25     1    24    1
    26    24    25    1
    27    25    26    2
    28    25    27    1
    29    25    28    1
    30    28    29    1
    31    29    30    1
    32    29    37    1
    33    30    31    1
    34    30    34    1
    35    31    32    1
    36    31    35    1
    37    32    33    1
    38    32    36    1
    39    33    41    1
    40    33    37    1
    41    41    42    1
    42    34    38    1
    43    35    39    1
    44    36    40    1
    45    42    43    1
@<TRIPOS>MOLECULE
GDU
 43 45 0 0 0
SMALL
GASTEIGER

@<TRIPOS>ATOM
      1 P          21.2707   71.3023   -0.9897 P.3     1  UNL1        0.2189
      2 O          22.5928   71.3770   -1.6499 O.2     1  UNL1       -0.5170
      3 O          21.1020   69.8630   -0.2876 O.3     1  UNL1       -0.4371
      4 O          21.1599   72.4584    0.1230 O.3     1  UNL1       -0.3112
      5 C          22.2196   72.2383    1.0552 C.3     1  UNL1        0.1811
      6 C          20.9221   74.4124    3.6081 C.3     1  UNL1        0.2383
      7 C          21.6752   73.3038    4.3870 C.3     1  UNL1        0.1895
      8 O          22.2121   73.8144    5.6094 O.3     1  UNL1       -0.3779
      9 C          22.8100   72.9266    3.3994 C.3     1  UNL1        0.1713
     10 C          22.2936   73.4129    2.0326 C.3     1  UNL1        0.1764
     11 O          20.9798   73.9604    2.2385 O.3     1  UNL1       -0.3308
     12 O          24.0219   73.5972    3.7513 O.3     1  UNL1       -0.3794
     13 H          22.6655   73.0784    6.0438 H       1  UNL1        0.2106
     14 H          24.2613   73.2959    4.6382 H       1  UNL1        0.2105
     15 N          19.5334   74.5111    4.0606 N.ar    1  UNL1       -0.2551
     16 C          19.2180   74.1738    5.3235 C.ar    1  UNL1        0.3323
     17 N          17.9495   74.2588    5.7656 N.ar    1  UNL1       -0.2743
     18 C          16.9688   74.6762    4.9421 C.ar    1  UNL1        0.2626
     19 C          17.2854   75.0294    3.6074 C.ar    1  UNL1        0.0795
     20 C          18.5664   74.9389    3.1911 C.ar    1  UNL1        0.0869
     21 O          20.0919   73.7959    6.0781 O.2     1  UNL1       -0.2464
     22 O          15.8195   74.7489    5.3400 O.2     1  UNL1       -0.2670
     23 H          17.7405   74.0153    6.6815 H       1  UNL1        0.1734
     24 O          20.1111   71.5008   -2.0890 O.3     1  UNL1       -0.2703
     25 P          20.0518   70.1455   -2.9547 P.3     1  UNL1        0.2208
     26 O          21.4071   69.5590   -3.0457 O.2     1  UNL1       -0.5170
     27 O          19.0603   69.0960   -2.2409 O.3     1  UNL1       -0.4371
     28 O          19.5082   70.4751   -4.4332 O.3     1  UNL1       -0.2858
     29 C          18.4322   71.4021   -4.2826 C.3     1  UNL1        0.2704
     30 C          17.1541   70.7977   -4.8662 C.3     1  UNL1        0.1967
     31 C          17.3860   70.4738   -6.3453 C.3     1  UNL1        0.1715
     32 C          17.8908   71.7378   -7.0504 C.3     1  UNL1        0.1694
     33 C          19.1152   72.2701   -6.3016 C.3     1  UNL1        0.1761
     34 O          16.8241   69.6011   -4.1587 O.3     1  UNL1       -0.3775
     35 O          16.1594   70.0462   -6.9412 O.3     1  UNL1       -0.3794
     36 O          16.8602   72.7266   -7.0546 O.3     1  UNL1       -0.3794
     37 O          18.7508   72.6124   -4.9652 O.3     1  UNL1       -0.3258
     38 H          16.6943   69.8507   -3.2337 H       1  UNL1        0.2106
     39 H          15.8741   69.2591   -6.4602 H       1  UNL1        0.2105
     40 H          16.1098   72.3467   -7.5299 H       1  UNL1        0.2105
     41 C          19.6481   73.5132   -7.0176 C.3     1  UNL1        0.1693
     42 O          19.3524   73.4220   -8.4123 O.3     1  UNL1       -0.3794
     43 H          19.7032   74.2228   -8.8257 H       1  UNL1        0.2105
@<TRIPOS>BOND
     1    15    16   ar
     2    15    20   ar
     3    15     6    1
     4    16    17   ar
     5    16    21    2
     6    17    18   ar
     7    17    23    1
     8    18    19   ar
     9    18    22    2
    10    19    20   ar
    11     6     7    1
    12     6    11    1
    13     7     8    1
    14     7     9    1
    15     8    13    1
    16     9    10    1
    17     9    12    1
    18    10    11    1
    19    10     5    1
    20    12    14    1
    21     5     4    1
    22     4     1    1
    23     1     2    2
    24     1     3    1
    25     1    24    1
    26    24    25    1
    27    25    26    2
    28    25    27    1
    29    25    28    1
    30    28    29    1
    31    29    30    1
    32    29    37    1
    33    30    31    1
    34    30    34    1
    35    31    32    1
    36    31    35    1
    37    32    33    1
    38    32    36    1
    39    33    41    1
    40    33    37    1
    41    41    42    1
    42    34    38    1
    43    35    39    1
    44    36    40    1
    45    42    43    1
@<TRIPOS>MOLECULE
GDU
 43 45 0 0 0
SMALL
GASTEIGER

@<TRIPOS>ATOM
      1 P          22.0685   71.4415   -3.3028 P.3     1  UNL1        0.2189
      2 O          23.4532   71.9567   -3.3854 O.2     1  UNL1       -0.5170
      3 O          22.1011   69.8427   -3.1141 O.3     1  UNL1       -0.4371
      4 O          21.3190   72.1146   -2.0489 O.3     1  UNL1       -0.3112
      5 C          22.2543   73.0036   -1.4363 C.3     1  UNL1        0.1811
      6 C          22.6636   73.2698    2.1259 C.3     1  UNL1        0.2383
      7 C          21.2380   72.6902    1.9403 C.3     1  UNL1        0.1895
      8 O          20.8852   71.8430    3.0362 O.3     1  UNL1       -0.3779
      9 C          21.3886   71.8694    0.6330 C.3     1  UNL1        0.1713
     10 C          22.6282   72.4769   -0.0496 C.3     1  UNL1        0.1764
     11 O          23.0874   73.5605    0.7770 O.3     1  UNL1       -0.3308
     12 O          21.6002   70.4882    0.9318 O.3     1  UNL1       -0.3794
     13 H          19.9916   71.5169    2.8602 H       1  UNL1        0.2106
     14 H          20.8174   70.1818    1.4092 H       1  UNL1        0.2105
     15 N          22.6250   74.4929    2.9293 N.ar    1  UNL1       -0.2551
     16 C          21.5801   75.3318    2.8168 C.ar    1  UNL1        0.3323
     17 N          21.5184   76.4612    3.5466 N.ar    1  UNL1       -0.2743
     18 C          22.5130   76.7753    4.3988 C.ar    1  UNL1        0.2626
     19 C          23.6227   75.9039    4.5234 C.ar    1  UNL1        0.0795
     20 C          23.6573   74.7757    3.7828 C.ar    1  UNL1        0.0869
     21 O          20.6751   75.0616    2.0526 O.2     1  UNL1       -0.2464
     22 O          22.4604   77.7997    5.0563 O.2     1  UNL1       -0.2670
     23 H          20.7547   77.0531    3.4559 H       1  UNL1        0.1734
     24 O          21.2801   71.8045   -4.6589 O.3     1  UNL1       -0.2703
     25 P          19.8357   71.1015   -4.5614 P.3     1  UNL1        0.2208
     26 O          19.9070   69.9557   -3.6281 O.2     1  UNL1       -0.5170
     27 O          18.7559   72.1671   -4.0205 O.3     1  UNL1       -0.4371
     28 O          19.3913   70.5814   -6.0181 O.3     1  UNL1       -0.2858
     29 C          18.6731   71.6487   -6.6385 C.3     1  UNL1        0.2704
     30 C          17.8684   71.1024   -7.8189 C.3     1  UNL1        0.1967
     31 C          18.8286   70.4455   -8.8154 C.3     1  UNL1        0.1715
     32 C          19.9208   71.4563   -9.1827 C.3     1  UNL1        0.1694
     33 C          20.5716   71.9747   -7.8978 C.3     1  UNL1        0.1761
     34 O          16.9274   70.1350   -7.3499 O.3     1  UNL1       -0.3775
     35 O          18.1119   70.0613   -9.9907 O.3     1  UNL1       -0.3794
     36 O          19.3416   72.5450   -9.9034 O.3     1  UNL1       -0.3794
     37 O          19.5941   72.6361   -7.0961 O.3     1  UNL1       -0.3258
     38 H          16.3497   70.5896   -6.7218 H       1  UNL1        0.2106
     39 H          17.4304   69.4370   -9.7113 H       1  UNL1        0.2105
     40 H          18.9399   72.1718  -10.6988 H       1  UNL1        0.2105
     41 C          21.6874   72.9594   -8.2547 C.3     1  UNL1        0.1693
     42 O          22.7936   72.7648   -7.3719 O.3     1  UNL1       -0.3794
     43 H          23.4734   73.4024   -7.6302 H       1  UNL1        0.2105
@<TRIPOS>BOND
     1    15    16   ar
     2    15    20   ar
     3    15     6    1
     4    16    17   ar
     5    16    21    2
     6    17    18   ar
     7    17    23    1
     8    18    19   ar
     9    18    22    2
    10    19    20   ar
    11     6     7    1
    12     6    11    1
    13     7     8    1
    14     7     9    1
    15     8    13    1
    16     9    10    1
    17     9    12    1
    18    10    11    1
    19    10     5    1
    20    12    14    1
    21     5     4    1
    22     4     1    1
    23     1     2    2
    24     1     3    1
    25     1    24    1
    26    24    25    1
    27    25    26    2
    28    25    27    1
    29    25    28    1
    30    28    29    1
    31    29    30    1
    32    29    37    1
    33    30    31    1
    34    30    34    1
    35    31    32    1
    36    31    35    1
    37    32    33    1
    38    32    36    1
    39    33    41    1
    40    33    37    1
    41    41    42    1
    42    34    38    1
    43    35    39    1
    44    36    40    1
    45    42    43    1
@<TRIPOS>MOLECULE
GDU
 43 45 0 0 0
SMALL
GASTEIGER

@<TRIPOS>ATOM
      1 P          20.0974   71.2955   -4.3268 P.3     1  UNL1        0.2189
      2 O          19.2668   71.9531   -3.2937 O.2     1  UNL1       -0.5170
      3 O          21.0176   70.1679   -3.6378 O.3     1  UNL1       -0.4371
      4 O          19.1443   70.6117   -5.4272 O.3     1  UNL1       -0.3112
      5 C          19.6304   71.0202   -6.7068 C.3     1  UNL1        0.1811
      6 C          16.7996   72.7819   -8.0523 C.3     1  UNL1        0.2383
      7 C          17.9953   73.2429   -8.9245 C.3     1  UNL1        0.1895
      8 O          17.5687   73.5480  -10.2542 O.3     1  UNL1       -0.3779
      9 C          18.9095   71.9902   -8.9107 C.3     1  UNL1        0.1713
     10 C          18.4531   71.2075   -7.6655 C.3     1  UNL1        0.1764
     11 O          17.4208   71.9785   -7.0266 O.3     1  UNL1       -0.3308
     12 O          18.7142   71.2161  -10.0958 O.3     1  UNL1       -0.3794
     13 H          18.3558   73.8272  -10.7424 H       1  UNL1        0.2106
     14 H          18.9607   71.7793  -10.8420 H       1  UNL1        0.2105
     15 N          16.1150   73.9332   -7.4617 N.ar    1  UNL1       -0.2551
     16 C          15.0277   74.4443   -8.0657 C.ar    1  UNL1        0.3323
     17 N          14.3778   75.5002   -7.5417 N.ar    1  UNL1       -0.2743
     18 C          14.8150   76.0709   -6.4026 C.ar    1  UNL1        0.2626
     19 C          15.9625   75.5467   -5.7585 C.ar    1  UNL1        0.0795
     20 C          16.5928   74.4844   -6.3033 C.ar    1  UNL1        0.0869
     21 O          14.6212   73.9399   -9.0935 O.2     1  UNL1       -0.2464
     22 O          14.2302   77.0296   -5.9301 O.2     1  UNL1       -0.2670
     23 H          13.5922   75.8535   -7.9886 H       1  UNL1        0.1734
     24 O          21.0375   72.3931   -5.0368 O.3     1  UNL1       -0.2703
     25 P          22.1193   72.8602   -3.9407 P.3     1  UNL1        0.2208
     26 O          23.3646   72.0801   -4.1135 O.2     1  UNL1       -0.5170
     27 O          22.4370   74.4272   -4.1345 O.3     1  UNL1       -0.4371
     28 O          21.5300   72.6120   -2.4638 O.3     1  UNL1       -0.2858
     29 C          22.6317   72.6921   -1.5586 C.3     1  UNL1        0.2704
     30 C          22.7723   71.3662   -0.8091 C.3     1  UNL1        0.1967
     31 C          21.4710   71.0803   -0.0533 C.3     1  UNL1        0.1715
     32 C          21.1367   72.2927    0.8230 C.3     1  UNL1        0.1694
     33 C          21.1183   73.5490   -0.0514 C.3     1  UNL1        0.1761
     34 O          23.0272   70.3141   -1.7414 O.3     1  UNL1       -0.3775
     35 O          21.6372   69.9225    0.7679 O.3     1  UNL1       -0.3794
     36 O          22.1249   72.4306    1.8450 O.3     1  UNL1       -0.3794
     37 O          22.4064   73.7510   -0.6309 O.3     1  UNL1       -0.3258
     38 H          23.8492   70.5390   -2.1980 H       1  UNL1        0.2106
     39 H          21.8572   69.1904    0.1781 H       1  UNL1        0.2105
     40 H          22.1048   71.6169    2.3654 H       1  UNL1        0.2105
     41 C          20.7516   74.7610    0.8079 C.3     1  UNL1        0.1693
     42 O          19.4567   74.5651    1.3786 O.3     1  UNL1       -0.3794
     43 H          19.2643   75.3487    1.9117 H       1  UNL1        0.2105
@<TRIPOS>BOND
     1    15    16   ar
     2    15    20   ar
     3    15     6    1
     4    16    17   ar
     5    16    21    2
     6    17    18   ar
     7    17    23    1
     8    18    19   ar
     9    18    22    2
    10    19    20   ar
    11     6     7    1
    12     6    11    1
    13     7     8    1
    14     7     9    1
    15     8    13    1
    16     9    10    1
    17     9    12    1
    18    10    11    1
    19    10     5    1
    20    12    14    1
    21     5     4    1
    22     4     1    1
    23     1     2    2
    24     1     3    1
    25     1    24    1
    26    24    25    1
    27    25    26    2
    28    25    27    1
    29    25    28    1
    30    28    29    1
    31    29    30    1
    32    29    37    1
    33    30    31    1
    34    30    34    1
    35    31    32    1
    36    31    35    1
    37    32    33    1
    38    32    36    1
    39    33    41    1
    40    33    37    1
    41    41    42    1
    42    34    38    1
    43    35    39    1
    44    36    40    1
    45    42    43    1
@<TRIPOS>MOLECULE
GDU
 43 45 0 0 0
SMALL
GASTEIGER

@<TRIPOS>ATOM
      1 P          22.5282   72.0516   -3.2723 P.3     1  UNL1        0.2189
      2 O          22.5963   72.4483   -4.6962 O.2     1  UNL1       -0.5170
      3 O          23.3318   70.6722   -3.0606 O.3     1  UNL1       -0.4371
      4 O          23.1878   73.2020   -2.3621 O.3     1  UNL1       -0.3112
      5 C          22.2251   73.5422   -1.3632 C.3     1  UNL1        0.1811
      6 C          22.6431   73.3471    2.2026 C.3     1  UNL1        0.2383
      7 C          21.1924   72.8607    1.9537 C.3     1  UNL1        0.1895
      8 O          20.8001   71.9016    2.9383 O.3     1  UNL1       -0.3779
      9 C          21.3063   72.2018    0.5543 C.3     1  UNL1        0.1713
     10 C          22.5731   72.8316   -0.0539 C.3     1  UNL1        0.1764
     11 O          23.0809   73.7826    0.8979 O.3     1  UNL1       -0.3308
     12 O          21.4539   70.7860    0.6793 O.3     1  UNL1       -0.3794
     13 H          19.8926   71.6410    2.7277 H       1  UNL1        0.2106
     14 H          20.6573   70.4590    1.1189 H       1  UNL1        0.2105
     15 N          22.6600   74.4620    3.1510 N.ar    1  UNL1       -0.2551
     16 C          22.7409   74.2140    4.4702 C.ar    1  UNL1        0.3323
     17 N          22.7617   75.2211    5.3631 N.ar    1  UNL1       -0.2743
     18 C          22.6915   76.5003    4.9471 C.ar    1  UNL1        0.2626
     19 C          22.6001   76.7763    3.5609 C.ar    1  UNL1        0.0795
     20 C          22.5854   75.7476    2.6867 C.ar    1  UNL1        0.0869
     21 O          22.8054   73.0653    4.8605 O.2     1  UNL1       -0.2464
     22 O          22.7055   77.4123    5.7548 O.2     1  UNL1       -0.2670
     23 H          22.8248   75.0240    6.3112 H       1  UNL1        0.1734
     24 O          20.9892   71.8452   -2.8466 O.3     1  UNL1       -0.2703
     25 P          20.6402   70.2940   -3.0955 P.3     1  UNL1        0.2208
     26 O          21.8942   69.5122   -3.1693 O.2     1  UNL1       -0.5170
     27 O          19.7372   69.7455   -1.8798 O.3     1  UNL1       -0.4371
     28 O          19.8288   70.1403   -4.4768 O.3     1  UNL1       -0.2858
     29 C          18.8689   71.1971   -4.5140 C.3     1  UNL1        0.2704
     30 C          17.4793   70.6138   -4.7755 C.3     1  UNL1        0.1967
     31 C          17.4996   69.8544   -6.1057 C.3     1  UNL1        0.1715
     32 C          18.0296   70.7916   -7.1969 C.3     1  UNL1        0.1694
     33 C          19.3793   71.3602   -6.7522 C.3     1  UNL1        0.1761
     34 O          17.1287   69.7198   -3.7177 O.3     1  UNL1       -0.3775
     35 O          16.1758   69.4292   -6.4360 O.3     1  UNL1       -0.3794
     36 O          17.1014   71.8573   -7.4036 O.3     1  UNL1       -0.3794
     37 O          19.2126   72.1127   -5.5514 O.3     1  UNL1       -0.3258
     38 H          17.1354   70.2375   -2.9011 H       1  UNL1        0.2106
     39 H          15.8796   68.8540   -5.7193 H       1  UNL1        0.2105
     40 H          16.2672   71.4531   -7.6758 H       1  UNL1        0.2105
     41 C          19.9338   72.2709   -7.8500 C.3     1  UNL1        0.1693
     42 O          21.1647   71.7336   -8.3369 O.3     1  UNL1       -0.3794
     43 H          21.4796   72.3350   -9.0257 H       1  UNL1        0.2105
@<TRIPOS>BOND
     1    15    16   ar
     2    15    20   ar
     3    15     6    1
     4    16    17   ar
     5    16    21    2
     6    17    18   ar
     7    17    23    1
     8    18    19   ar
     9    18    22    2
    10    19    20   ar
    11     6     7    1
    12     6    11    1
    13     7     8    1
    14     7     9    1
    15     8    13    1
    16     9    10    1
    17     9    12    1
    18    10    11    1
    19    10     5    1
    20    12    14    1
    21     5     4    1
    22     4     1    1
    23     1     2    2
    24     1     3    1
    25     1    24    1
    26    24    25    1
    27    25    26    2
    28    25    27    1
    29    25    28    1
    30    28    29    1
    31    29    30    1
    32    29    37    1
    33    30    31    1
    34    30    34    1
    35    31    32    1
    36    31    35    1
    37    32    33    1
    38    32    36    1
    39    33    41    1
    40    33    37    1
    41    41    42    1
    42    34    38    1
    43    35    39    1
    44    36    40    1
    45    42    43    1
@<TRIPOS>MOLECULE
GDU
 43 45 0 0 0
SMALL
GASTEIGER

@<TRIPOS>ATOM
      1 P          22.0390   71.5790   -3.2027 P.3     1  UNL1        0.2189
      2 O          23.3265   72.1751   -3.6228 O.2     1  UNL1       -0.5170
      3 O          22.2840   70.0663   -2.7081 O.3     1  UNL1       -0.4371
      4 O          21.4148   72.4429   -1.9982 O.3     1  UNL1       -0.3112
      5 C          22.4966   73.1554   -1.3961 C.3     1  UNL1        0.1811
      6 C          22.6815   73.3032    2.1915 C.3     1  UNL1        0.2383
      7 C          21.2657   72.7447    1.8976 C.3     1  UNL1        0.1895
      8 O          20.8371   71.8667    2.9409 O.3     1  UNL1       -0.3779
      9 C          21.4920   71.9647    0.5763 C.3     1  UNL1        0.1713
     10 C          22.7774   72.5808   -0.0065 C.3     1  UNL1        0.1764
     11 O          23.1923   73.6325    0.8823 O.3     1  UNL1       -0.3308
     12 O          21.6727   70.5725    0.8428 O.3     1  UNL1       -0.3794
     13 H          19.9538   71.5557    2.6984 H       1  UNL1        0.2106
     14 H          20.8586   70.2591    1.2596 H       1  UNL1        0.2105
     15 N          22.6022   74.5003    3.0303 N.ar    1  UNL1       -0.2551
     16 C          23.5336   74.7146    3.9763 C.ar    1  UNL1        0.3323
     17 N          23.4857   75.8090    4.7585 N.ar    1  UNL1       -0.2743
     18 C          22.4926   76.7070    4.6115 C.ar    1  UNL1        0.2626
     19 C          21.5014   76.4914    3.6230 C.ar    1  UNL1        0.0795
     20 C          21.5756   75.3876    2.8492 C.ar    1  UNL1        0.0869
     21 O          24.4358   73.9137    4.1203 O.2     1  UNL1       -0.2464
     22 O          22.4458   77.6955    5.3223 O.2     1  UNL1       -0.2670
     23 H          24.1687   75.9499    5.4334 H       1  UNL1        0.1734
     24 O          21.0184   71.5763   -4.4480 O.3     1  UNL1       -0.2703
     25 P          21.3494   72.8841   -5.3255 P.3     1  UNL1        0.2208
     26 O          21.3070   74.0828   -4.4592 O.2     1  UNL1       -0.5170
     27 O          22.8184   72.7400   -5.9699 O.3     1  UNL1       -0.4371
     28 O          20.2610   73.0321   -6.5017 O.3     1  UNL1       -0.2858
     29 C          19.9259   71.7101   -6.9258 C.3     1  UNL1        0.2704
     30 C          19.8305   71.6737   -8.4519 C.3     1  UNL1        0.1967
     31 C          18.7648   72.6747   -8.9088 C.3     1  UNL1        0.1715
     32 C          17.4583   72.3726   -8.1662 C.3     1  UNL1        0.1694
     33 C          17.7336   72.3579   -6.6605 C.3     1  UNL1        0.1761
     34 O          21.0939   72.0252   -9.0189 O.3     1  UNL1       -0.3775
     35 O          18.5596   72.5479  -10.3175 O.3     1  UNL1       -0.3794
     36 O          16.9581   71.0996   -8.5778 O.3     1  UNL1       -0.3794
     37 O          18.6762   71.3317   -6.3535 O.3     1  UNL1       -0.3258
     38 H          21.7338   71.3745   -8.6995 H       1  UNL1        0.2106
     39 H          19.4068   72.7341  -10.7416 H       1  UNL1        0.2105
     40 H          16.8052   71.1536   -9.5302 H       1  UNL1        0.2105
     41 C          16.4282   72.0910   -5.9077 C.3     1  UNL1        0.1693
     42 O          16.3402   70.7017   -5.5863 O.3     1  UNL1       -0.3794
     43 H          15.5061   70.5762   -5.1133 H       1  UNL1        0.2105
@<TRIPOS>BOND
     1    15    16   ar
     2    15    20   ar
     3    15     6    1
     4    16    17   ar
     5    16    21    2
     6    17    18   ar
     7    17    23    1
     8    18    19   ar
     9    18    22    2
    10    19    20   ar
    11     6     7    1
    12     6    11    1
    13     7     8    1
    14     7     9    1
    15     8    13    1
    16     9    10    1
    17     9    12    1
    18    10    11    1
    19    10     5    1
    20    12    14    1
    21     5     4    1
    22     4     1    1
    23     1     2    2
    24     1     3    1
    25     1    24    1
    26    24    25    1
    27    25    26    2
    28    25    27    1
    29    25    28    1
    30    28    29    1
    31    29    30    1
    32    29    37    1
    33    30    31    1
    34    30    34    1
    35    31    32    1
    36    31    35    1
    37    32    33    1
    38    32    36    1
    39    33    41    1
    40    33    37    1
    41    41    42    1
    42    34    38    1
    43    35    39    1
    44    36    40    1
    45    42    43    1
