@<TRIPOS>MOLECULE
*****
 43 45 0 0 0
SMALL
GASTEIGER

@<TRIPOS>ATOM
      1 P          23.0659   71.6765   -2.4778 P.3     1  UNL1        0.2189
      2 O          23.4109   73.1454   -1.8941 O.co2   1  UNL1       -0.4371
      3 O          24.1934   71.0014   -3.2020 O.2     1  UNL1       -0.5170
      4 O          21.7161   71.9082   -3.3393 O.3     1  UNL1       -0.3112
      5 C          20.9229   70.7813   -3.6694 C.3     1  UNL1        0.1811
      6 O          18.9009   71.6974   -4.5891 O.3     1  UNL1       -0.3308
      7 O          17.4717   70.2936   -2.3580 O.3     1  UNL1       -0.3794
      8 O          17.0402   68.6334   -4.4779 O.3     1  UNL1       -0.3779
      9 C          18.6144   69.8745   -3.1022 C.3     1  UNL1        0.1713
     10 C          18.2043   69.4342   -4.4919 C.3     1  UNL1        0.1895
     11 C          19.4609   71.1068   -3.3958 C.3     1  UNL1        0.1764
     12 C          17.9903   70.7646   -5.1937 C.3     1  UNL1        0.2383
     13 H          16.9158   69.5235   -2.1583 H       1  UNL1        0.2105
     14 H          17.2273   67.7986   -4.0209 H       1  UNL1        0.2106
     15 O          16.0847   70.0573   -7.1549 O.2     1  UNL1       -0.2464
     16 O          19.1525   70.5161  -10.5636 O.2     1  UNL1       -0.2670
     17 N          18.2638   70.6916   -6.6012 N.ar    1  UNL1       -0.2551
     18 N          17.6138   70.2865   -8.8506 N.ar    1  UNL1       -0.2743
     19 C          17.2368   70.3255   -7.5022 C.ar    1  UNL1        0.3323
     20 C          19.5385   70.9816   -7.0754 C.ar    1  UNL1        0.0869
     21 C          19.8821   70.9385   -8.3643 C.ar    1  UNL1        0.0795
     22 C          18.8677   70.5648   -9.3710 C.ar    1  UNL1        0.2626
     23 H          16.9148   70.0335   -9.4965 H       1  UNL1        0.1734
     24 O          22.5331   70.8833   -1.1740 O.3     1  UNL1       -0.2703
     25 P          21.7294   71.4018    0.1292 P.3     1  UNL1        0.2208
     26 O          21.3896   70.0342    0.9240 O.co2   1  UNL1       -0.4371
     27 O          20.5311   72.2501   -0.1840 O.2     1  UNL1       -0.5170
     28 O          22.8479   72.1324    1.0349 O.3     1  UNL1       -0.2858
     29 O          24.5406   71.7517    2.6493 O.3     1  UNL1       -0.3258
     30 O          22.0258   74.1474    4.8825 O.3     1  UNL1       -0.3794
     31 O          24.5212   75.2067    3.9343 O.3     1  UNL1       -0.3794
     32 O          20.9152   72.1834    3.0690 O.3     1  UNL1       -0.3775
     33 C          22.6810   73.6979    3.6934 C.3     1  UNL1        0.1715
     34 C          24.1916   73.8208    3.9024 C.3     1  UNL1        0.1694
     35 C          22.2915   72.2449    3.4277 C.3     1  UNL1        0.1967
     36 C          24.9654   73.1132    2.7819 C.3     1  UNL1        0.1761
     37 C          23.1541   71.6207    2.3294 C.3     1  UNL1        0.2704
     38 H          22.2685   75.0695    5.0566 H       1  UNL1        0.2105
     39 H          24.0256   75.6419    4.6458 H       1  UNL1        0.2105
     40 H          20.3798   72.5814    3.7723 H       1  UNL1        0.2106
     41 O          26.9444   71.7749    2.8178 O.3     1  UNL1       -0.3794
     42 C          26.4681   73.0873    3.0526 C.3     1  UNL1        0.1693
     43 H          27.8997   71.7435    2.9859 H       1  UNL1        0.2105
@<TRIPOS>UNITY_ATOM_ATTR
2 1
charge -1
26 1
charge -1
@<TRIPOS>BOND
     1    25    28    1
     2    25    24    1
     3    25    26    1
     4    25    27    2
     5     1     4    1
     6     1    24    1
     7     1     2    1
     8     1     3    2
     9     6    11    1
    10     6    12    1
    11    29    36    1
    12    29    37    1
    13     7     9    1
    14     7    13    1
    15     8    10    1
    16     8    14    1
    17    28    37    1
    18     4     5    1
    19    30    33    1
    20    30    38    1
    21    31    34    1
    22    31    39    1
    23    32    35    1
    24    32    40    1
    25    41    42    1
    26    41    43    1
    27    15    19    2
    28    16    22    2
    29    17    12    1
    30    17    19   ar
    31    17    20   ar
    32    18    19   ar
    33    18    22   ar
    34    18    23    1
    35     9    10    1
    36     9    11    1
    37    10    12    1
    38    11     5    1
    39    33    34    1
    40    33    35    1
    41    34    36    1
    42    35    37    1
    43    36    42    1
    44    20    21   ar
    45    21    22   ar
@<TRIPOS>MOLECULE
*****
 43 45 0 0 0
SMALL
GASTEIGER

@<TRIPOS>ATOM
      1 P          21.6067   72.2380   -2.2318 P.3     1  UNL1        0.2189
      2 O          22.6407   73.4762   -2.1077 O.co2   1  UNL1       -0.4371
      3 O          22.0916   71.0885   -3.0653 O.2     1  UNL1       -0.5170
      4 O          20.2292   72.9302   -2.7229 O.3     1  UNL1       -0.3112
      5 C          19.7243   72.5968   -4.0042 C.3     1  UNL1        0.1811
      6 O          17.6621   72.2647   -5.1919 O.3     1  UNL1       -0.3308
      7 O          16.7394   70.7336   -2.7845 O.3     1  UNL1       -0.3794
      8 O          17.4292   68.7489   -4.5228 O.3     1  UNL1       -0.3779
      9 C          18.0396   70.7995   -3.3680 C.3     1  UNL1        0.1713
     10 C          18.0816   69.9958   -4.6509 C.3     1  UNL1        0.1895
     11 C          18.2548   72.2199   -3.8754 C.3     1  UNL1        0.1764
     12 C          17.3808   70.9246   -5.6278 C.3     1  UNL1        0.2383
     13 H          16.5792   69.8357   -2.4529 H       1  UNL1        0.2105
     14 H          17.9129   68.1941   -3.8910 H       1  UNL1        0.2106
     15 O          15.7212   70.3955   -7.8512 O.2     1  UNL1       -0.2464
     16 O          19.3090   70.3215  -10.7432 O.2     1  UNL1       -0.2670
     17 N          17.8547   70.7628   -6.9734 N.ar    1  UNL1       -0.2551
     18 N          17.5090   70.3592   -9.2894 N.ar    1  UNL1       -0.2743
     19 C          16.9383   70.4985   -8.0178 C.ar    1  UNL1        0.3323
     20 C          19.2143   70.8667   -7.2465 C.ar    1  UNL1        0.0869
     21 C          19.7426   70.7299   -8.4644 C.ar    1  UNL1        0.0795
     22 C          18.8538   70.4525   -9.6112 C.ar    1  UNL1        0.2626
     23 H          16.8898   70.1744  -10.0325 H       1  UNL1        0.1734
     24 O          21.2972   71.8670   -0.6892 O.3     1  UNL1       -0.2703
     25 P          22.2418   71.2366    0.4611 P.3     1  UNL1        0.2208
     26 O          23.6493   71.0027   -0.3015 O.co2   1  UNL1       -0.4371
     27 O          21.6793   70.0072    1.1139 O.2     1  UNL1       -0.5170
     28 O          22.5252   72.4613    1.4735 O.3     1  UNL1       -0.2858
     29 O          21.4960   72.8984    3.5631 O.3     1  UNL1       -0.3258
     30 O          22.1368   76.7829    2.3176 O.3     1  UNL1       -0.3794
     31 O          23.7420   75.6891    4.4330 O.3     1  UNL1       -0.3794
     32 O          21.3355   74.7660    0.4020 O.3     1  UNL1       -0.3775
     33 C          22.4371   75.3910    2.4507 C.3     1  UNL1        0.1715
     34 C          22.5583   75.0669    3.9410 C.3     1  UNL1        0.1694
     35 C          21.3146   74.5748    1.8125 C.3     1  UNL1        0.1967
     36 C          22.6142   73.5513    4.1756 C.3     1  UNL1        0.1761
     37 C          21.4369   73.0873    2.1479 C.3     1  UNL1        0.2704
     38 H          22.8459   77.3067    2.7204 H       1  UNL1        0.2105
     39 H          23.6942   76.6456    4.2782 H       1  UNL1        0.2105
     40 H          21.2571   75.7115    0.2028 H       1  UNL1        0.2106
     41 O          21.8559   74.2110    6.3433 O.3     1  UNL1       -0.3794
     42 C          22.5763   73.2008    5.6615 C.3     1  UNL1        0.1693
     43 H          21.8234   74.0010    7.2902 H       1  UNL1        0.2105
@<TRIPOS>UNITY_ATOM_ATTR
2 1
charge -1
26 1
charge -1
@<TRIPOS>BOND
     1    25    28    1
     2    25    24    1
     3    25    26    1
     4    25    27    2
     5     1     4    1
     6     1    24    1
     7     1     2    1
     8     1     3    2
     9     6    11    1
    10     6    12    1
    11    29    36    1
    12    29    37    1
    13     7     9    1
    14     7    13    1
    15     8    10    1
    16     8    14    1
    17    28    37    1
    18     4     5    1
    19    30    33    1
    20    30    38    1
    21    31    34    1
    22    31    39    1
    23    32    35    1
    24    32    40    1
    25    41    42    1
    26    41    43    1
    27    15    19    2
    28    16    22    2
    29    17    12    1
    30    17    19   ar
    31    17    20   ar
    32    18    19   ar
    33    18    22   ar
    34    18    23    1
    35     9    10    1
    36     9    11    1
    37    10    12    1
    38    11     5    1
    39    33    34    1
    40    33    35    1
    41    34    36    1
    42    35    37    1
    43    36    42    1
    44    20    21   ar
    45    21    22   ar
@<TRIPOS>MOLECULE
*****
 43 45 0 0 0
SMALL
GASTEIGER

@<TRIPOS>ATOM
      1 P          23.4330   71.9248   -2.9694 P.3     1  UNL1        0.2189
      2 O          24.1974   73.1916   -3.6239 O.co2   1  UNL1       -0.4371
      3 O          24.1961   70.6335   -3.0111 O.2     1  UNL1       -0.5170
      4 O          21.9940   71.9148   -3.7090 O.3     1  UNL1       -0.3112
      5 C          21.2169   70.7310   -3.6601 C.3     1  UNL1        0.1811
      6 O          19.1683   71.7001   -4.4588 O.3     1  UNL1       -0.3308
      7 O          17.8379   70.3312   -2.1464 O.3     1  UNL1       -0.3794
      8 O          17.2388   68.6851   -4.2364 O.3     1  UNL1       -0.3779
      9 C          18.9233   69.8836   -2.9568 C.3     1  UNL1        0.1713
     10 C          18.4204   69.4556   -4.3197 C.3     1  UNL1        0.1895
     11 C          19.7826   71.0939   -3.3006 C.3     1  UNL1        0.1764
     12 C          18.1997   70.7918   -5.0080 C.3     1  UNL1        0.2383
     13 H          17.2751   69.5755   -1.9139 H       1  UNL1        0.2105
     14 H          17.4310   67.8452   -3.7909 H       1  UNL1        0.2106
     15 O          16.2048   69.9885   -6.8392 O.2     1  UNL1       -0.2464
     16 O          19.0331   70.5271  -10.4380 O.2     1  UNL1       -0.2670
     17 N          18.3874   70.7134   -6.4293 N.ar    1  UNL1       -0.2551
     18 N          17.6146   70.2575   -8.6296 N.ar    1  UNL1       -0.2743
     19 C          17.3214   70.2973   -7.2605 C.ar    1  UNL1        0.3323
     20 C          19.6175   71.0473   -6.9853 C.ar    1  UNL1        0.0869
     21 C          19.8814   71.0028   -8.2929 C.ar    1  UNL1        0.0795
     22 C          18.8216   70.5784   -9.2303 C.ar    1  UNL1        0.2626
     23 H          16.8872   69.9701   -9.2280 H       1  UNL1        0.1734
     24 O          23.0735   72.4460   -1.4821 O.3     1  UNL1       -0.2703
     25 P          22.7533   71.6344   -0.1213 P.3     1  UNL1        0.2208
     26 O          24.1876   71.0028    0.2803 O.co2   1  UNL1       -0.4371
     27 O          21.6477   70.6271   -0.2514 O.2     1  UNL1       -0.5170
     28 O          22.4881   72.7796    0.9846 O.3     1  UNL1       -0.2858
     29 O          23.6145   74.5757    2.0438 O.3     1  UNL1       -0.3258
     30 O          22.3693   72.5095    5.3952 O.3     1  UNL1       -0.3794
     31 O          21.0969   74.9898    4.7045 O.3     1  UNL1       -0.3794
     32 O          23.2737   71.0600    3.0584 O.3     1  UNL1       -0.3775
     33 C          22.2668   73.0063    4.0580 C.3     1  UNL1        0.1715
     34 C          22.3092   74.5348    4.1097 C.3     1  UNL1        0.1694
     35 C          23.4325   72.4638    3.2332 C.3     1  UNL1        0.1967
     36 C          22.4726   75.1323    2.7057 C.3     1  UNL1        0.1761
     37 C          23.5348   73.1590    1.8744 C.3     1  UNL1        0.2704
     38 H          21.6318   72.8499    5.9241 H       1  UNL1        0.2105
     39 H          21.0056   74.6049    5.5903 H       1  UNL1        0.2105
     40 H          23.2105   70.6314    3.9257 H       1  UNL1        0.2106
     41 O          21.5203   77.2685    2.2168 O.3     1  UNL1       -0.3794
     42 C          22.6753   76.6454    2.7480 C.3     1  UNL1        0.1693
     43 H          21.6349   78.2319    2.2377 H       1  UNL1        0.2105
@<TRIPOS>UNITY_ATOM_ATTR
2 1
charge -1
26 1
charge -1
@<TRIPOS>BOND
     1    25    28    1
     2    25    24    1
     3    25    26    1
     4    25    27    2
     5     1     4    1
     6     1    24    1
     7     1     2    1
     8     1     3    2
     9     6    11    1
    10     6    12    1
    11    29    36    1
    12    29    37    1
    13     7     9    1
    14     7    13    1
    15     8    10    1
    16     8    14    1
    17    28    37    1
    18     4     5    1
    19    30    33    1
    20    30    38    1
    21    31    34    1
    22    31    39    1
    23    32    35    1
    24    32    40    1
    25    41    42    1
    26    41    43    1
    27    15    19    2
    28    16    22    2
    29    17    12    1
    30    17    19   ar
    31    17    20   ar
    32    18    19   ar
    33    18    22   ar
    34    18    23    1
    35     9    10    1
    36     9    11    1
    37    10    12    1
    38    11     5    1
    39    33    34    1
    40    33    35    1
    41    34    36    1
    42    35    37    1
    43    36    42    1
    44    20    21   ar
    45    21    22   ar
@<TRIPOS>MOLECULE
*****
 43 45 0 0 0
SMALL
GASTEIGER

@<TRIPOS>ATOM
      1 P          20.6603   70.5409   -3.5948 P.3     1  UNL1        0.2189
      2 O          21.2507   71.4996   -4.7566 O.co2   1  UNL1       -0.4371
      3 O          20.4180   69.1191   -4.0087 O.2     1  UNL1       -0.5170
      4 O          19.3661   71.3440   -3.0489 O.3     1  UNL1       -0.3112
      5 C          18.8022   72.3539   -3.8674 C.3     1  UNL1        0.1811
      6 O          17.0036   72.1973   -5.4530 O.3     1  UNL1       -0.3308
      7 O          15.5269   70.6607   -3.3438 O.3     1  UNL1       -0.3794
      8 O          16.4304   68.6868   -4.9943 O.3     1  UNL1       -0.3779
      9 C          16.9192   70.6562   -3.6549 C.3     1  UNL1        0.1713
     10 C          17.1690   69.8901   -4.9372 C.3     1  UNL1        0.1895
     11 C          17.3167   72.0734   -4.0484 C.3     1  UNL1        0.1764
     12 C          16.7353   70.8930   -5.9928 C.3     1  UNL1        0.2383
     13 H          15.2498   69.7661   -3.0891 H       1  UNL1        0.2105
     14 H          16.7434   68.0821   -4.3036 H       1  UNL1        0.2106
     15 O          15.5287   70.6989   -8.5393 O.2     1  UNL1       -0.2464
     16 O          19.6093   70.3064  -10.6453 O.2     1  UNL1       -0.2670
     17 N          17.4586   70.7399   -7.2236 N.ar    1  UNL1       -0.2551
     18 N          17.5615   70.5038   -9.5859 N.ar    1  UNL1       -0.2743
     19 C          16.7571   70.6510   -8.4486 C.ar    1  UNL1        0.3323
     20 C          18.8478   70.6797   -7.2081 C.ar    1  UNL1        0.0869
     21 C          19.6002   70.5378   -8.3014 C.ar    1  UNL1        0.0795
     22 C          18.9454   70.4375   -9.6217 C.ar    1  UNL1        0.2626
     23 H          17.0947   70.4394  -10.4505 H       1  UNL1        0.1734
     24 O          21.7308   70.7197   -2.3970 O.3     1  UNL1       -0.2703
     25 P          23.1009   71.5737   -2.3165 P.3     1  UNL1        0.2208
     26 O          22.6966   72.9881   -2.9900 O.co2   1  UNL1       -0.4371
     27 O          24.2835   70.9011   -2.9513 O.2     1  UNL1       -0.5170
     28 O          23.2832   71.9066   -0.7477 O.3     1  UNL1       -0.2858
     29 O          24.4614   70.8278    1.0028 O.3     1  UNL1       -0.3258
     30 O          21.0255   71.8502    3.0522 O.3     1  UNL1       -0.3794
     31 O          23.4684   73.2626    3.5864 O.3     1  UNL1       -0.3794
     32 O          20.8566   70.9651    0.3013 O.3     1  UNL1       -0.3775
     33 C          22.0703   72.0251    2.0915 C.3     1  UNL1        0.1715
     34 C          23.4067   72.0529    2.8359 C.3     1  UNL1        0.1694
     35 C          22.0330   70.8663    1.0969 C.3     1  UNL1        0.1967
     36 C          24.5870   71.9695    1.8587 C.3     1  UNL1        0.1761
     37 C          23.2759   70.8469    0.2053 C.3     1  UNL1        0.2704
     38 H          21.0434   72.5829    3.6865 H       1  UNL1        0.2105
     39 H          22.7174   73.3030    4.1992 H       1  UNL1        0.2105
     40 H          20.0769   70.9761    0.8773 H       1  UNL1        0.2106
     41 O          26.6274   70.7389    2.0357 O.3     1  UNL1       -0.3794
     42 C          25.9233   71.8370    2.5860 C.3     1  UNL1        0.1693
     43 H          27.4802   70.6426    2.4887 H       1  UNL1        0.2105
@<TRIPOS>UNITY_ATOM_ATTR
2 1
charge -1
26 1
charge -1
@<TRIPOS>BOND
     1    25    28    1
     2    25    24    1
     3    25    26    1
     4    25    27    2
     5     1     4    1
     6     1    24    1
     7     1     2    1
     8     1     3    2
     9     6    11    1
    10     6    12    1
    11    29    36    1
    12    29    37    1
    13     7     9    1
    14     7    13    1
    15     8    10    1
    16     8    14    1
    17    28    37    1
    18     4     5    1
    19    30    33    1
    20    30    38    1
    21    31    34    1
    22    31    39    1
    23    32    35    1
    24    32    40    1
    25    41    42    1
    26    41    43    1
    27    15    19    2
    28    16    22    2
    29    17    12    1
    30    17    19   ar
    31    17    20   ar
    32    18    19   ar
    33    18    22   ar
    34    18    23    1
    35     9    10    1
    36     9    11    1
    37    10    12    1
    38    11     5    1
    39    33    34    1
    40    33    35    1
    41    34    36    1
    42    35    37    1
    43    36    42    1
    44    20    21   ar
    45    21    22   ar
@<TRIPOS>MOLECULE
*****
 43 45 0 0 0
SMALL
GASTEIGER

@<TRIPOS>ATOM
      1 P          21.3380   72.9499   -4.9846 P.3     1  UNL1        0.2189
      2 O          21.6607   74.4691   -4.5313 O.co2   1  UNL1       -0.4371
      3 O          21.7767   72.5969   -6.3754 O.2     1  UNL1       -0.5170
      4 O          19.7574   72.7819   -4.6825 O.3     1  UNL1       -0.3112
      5 C          19.3462   71.7770   -3.7720 C.3     1  UNL1        0.1811
      6 O          17.4198   71.9190   -5.2012 O.3     1  UNL1       -0.3308
      7 O          15.9939   70.2885   -3.1278 O.3     1  UNL1       -0.3794
      8 O          16.5953   68.4326   -5.0331 O.3     1  UNL1       -0.3779
      9 C          17.3516   70.2119   -3.5589 C.3     1  UNL1        0.1713
     10 C          17.4336   69.5651   -4.9259 C.3     1  UNL1        0.1895
     11 C          17.8328   71.6284   -3.8479 C.3     1  UNL1        0.1764
     12 C          17.0017   70.7007   -5.8381 C.3     1  UNL1        0.2383
     13 H          15.6646   69.3957   -2.9368 H       1  UNL1        0.2105
     14 H          16.9112   67.7385   -4.4339 H       1  UNL1        0.2106
     15 O          15.5666   70.6435   -8.2702 O.2     1  UNL1       -0.2464
     16 O          19.4369   70.3931  -10.7600 O.2     1  UNL1       -0.2670
     17 N          17.6090   70.6212   -7.1367 N.ar    1  UNL1       -0.2551
     18 N          17.4949   70.5190   -9.5079 N.ar    1  UNL1       -0.2743
     19 C          16.7982   70.5975   -8.2953 C.ar    1  UNL1        0.3323
     20 C          18.9939   70.5680   -7.2519 C.ar    1  UNL1        0.0869
     21 C          19.6428   70.4921   -8.4157 C.ar    1  UNL1        0.0795
     22 C          18.8696   70.4626   -9.6741 C.ar    1  UNL1        0.2626
     23 H          16.9507   70.5008  -10.3285 H       1  UNL1        0.1734
     24 O          22.0267   72.0684   -3.8178 O.3     1  UNL1       -0.2703
     25 P          23.5322   72.0769   -3.2293 P.3     1  UNL1        0.2208
     26 O          24.3347   73.0130   -4.2768 O.co2   1  UNL1       -0.4371
     27 O          24.1260   70.7114   -3.0382 O.2     1  UNL1       -0.5170
     28 O          23.4390   72.9603   -1.8817 O.3     1  UNL1       -0.2858
     29 O          21.7646   72.3965   -0.3021 O.3     1  UNL1       -0.3258
     30 O          22.6007   76.2366    0.9650 O.3     1  UNL1       -0.3794
     31 O          23.4741   74.0012    2.5424 O.3     1  UNL1       -0.3794
     32 O          22.5618   75.6259   -1.8644 O.3     1  UNL1       -0.3775
     33 C          22.9037   74.9488    0.4217 C.3     1  UNL1        0.1715
     34 C          22.5456   73.8908    1.4672 C.3     1  UNL1        0.1694
     35 C          22.0897   74.7411   -0.8541 C.3     1  UNL1        0.1967
     36 C          22.5903   72.4798    0.8654 C.3     1  UNL1        0.1761
     37 C          22.1628   73.2928   -1.3412 C.3     1  UNL1        0.2704
     38 H          23.1147   76.3750    1.7750 H       1  UNL1        0.2105
     39 H          23.4362   74.8969    2.9133 H       1  UNL1        0.2105
     40 H          22.5101   76.5394   -1.5439 H       1  UNL1        0.2106
     41 O          21.7145   70.2706    1.1124 O.3     1  UNL1       -0.3794
     42 C          22.0847   71.4236    1.8457 C.3     1  UNL1        0.1693
     43 H          21.3909   69.5896    1.7235 H       1  UNL1        0.2105
@<TRIPOS>UNITY_ATOM_ATTR
2 1
charge -1
26 1
charge -1
@<TRIPOS>BOND
     1    25    28    1
     2    25    24    1
     3    25    26    1
     4    25    27    2
     5     1     4    1
     6     1    24    1
     7     1     2    1
     8     1     3    2
     9     6    11    1
    10     6    12    1
    11    29    36    1
    12    29    37    1
    13     7     9    1
    14     7    13    1
    15     8    10    1
    16     8    14    1
    17    28    37    1
    18     4     5    1
    19    30    33    1
    20    30    38    1
    21    31    34    1
    22    31    39    1
    23    32    35    1
    24    32    40    1
    25    41    42    1
    26    41    43    1
    27    15    19    2
    28    16    22    2
    29    17    12    1
    30    17    19   ar
    31    17    20   ar
    32    18    19   ar
    33    18    22   ar
    34    18    23    1
    35     9    10    1
    36     9    11    1
    37    10    12    1
    38    11     5    1
    39    33    34    1
    40    33    35    1
    41    34    36    1
    42    35    37    1
    43    36    42    1
    44    20    21   ar
    45    21    22   ar
@<TRIPOS>MOLECULE
*****
 43 45 0 0 0
SMALL
GASTEIGER

@<TRIPOS>ATOM
      1 P          21.9400   71.4084   -1.9665 P.3     1  UNL1        0.2189
      2 O          23.2194   70.7399   -2.6970 O.co2   1  UNL1       -0.4371
      3 O          22.1079   71.6572   -0.4964 O.2     1  UNL1       -0.5170
      4 O          20.7087   70.4434   -2.3797 O.3     1  UNL1       -0.3112
      5 C          20.1767   70.5491   -3.6887 C.3     1  UNL1        0.1811
      6 O          18.3956   71.6641   -4.8541 O.3     1  UNL1       -0.3308
      7 O          16.5564   70.4487   -2.8217 O.3     1  UNL1       -0.3794
      8 O          16.2174   68.8176   -4.9807 O.3     1  UNL1       -0.3779
      9 C          17.7315   69.9009   -3.4169 C.3     1  UNL1        0.1713
     10 C          17.4534   69.4895   -4.8477 C.3     1  UNL1        0.1895
     11 C          18.7355   71.0321   -3.6006 C.3     1  UNL1        0.1764
     12 C          17.4728   70.8263   -5.5693 C.3     1  UNL1        0.2383
     13 H          15.9005   69.7448   -2.6942 H       1  UNL1        0.2105
     14 H          16.2553   67.9734   -4.5047 H       1  UNL1        0.2106
     15 O          15.7563   70.3500   -7.7613 O.2     1  UNL1       -0.2464
     16 O          19.2639   70.3859  -10.7507 O.2     1  UNL1       -0.2670
     17 N          17.9106   70.7070   -6.9314 N.ar    1  UNL1       -0.2551
     18 N          17.5042   70.3685   -9.2480 N.ar    1  UNL1       -0.2743
     19 C          16.9677   70.4667   -7.9579 C.ar    1  UNL1        0.3323
     20 C          19.2615   70.8286   -7.2383 C.ar    1  UNL1        0.0869
     21 C          19.7572   70.7311   -8.4736 C.ar    1  UNL1        0.0795
     22 C          18.8390   70.4807   -9.6034 C.ar    1  UNL1        0.2626
     23 H          16.8661   70.2008   -9.9791 H       1  UNL1        0.1734
     24 O          21.6717   72.7370   -2.8473 O.3     1  UNL1       -0.2703
     25 P          22.4221   74.1686   -2.8646 P.3     1  UNL1        0.2208
     26 O          23.8750   73.8335   -2.2366 O.co2   1  UNL1       -0.4371
     27 O          21.6779   75.2621   -2.1545 O.2     1  UNL1       -0.5170
     28 O          22.7102   74.4600   -4.4257 O.3     1  UNL1       -0.2858
     29 O          21.3780   75.7648   -5.8884 O.3     1  UNL1       -0.3258
     30 O          22.8858   73.0523   -8.6123 O.3     1  UNL1       -0.3794
     31 O          23.8407   75.7607   -8.6314 O.3     1  UNL1       -0.3794
     32 O          22.1528   72.1730   -5.9535 O.3     1  UNL1       -0.3775
     33 C          22.9191   73.8928   -7.4557 C.3     1  UNL1        0.1715
     34 C          22.6900   75.3370   -7.9056 C.3     1  UNL1        0.1694
     35 C          21.8242   73.4516   -6.4862 C.3     1  UNL1        0.1967
     36 C          22.4467   76.2597   -6.7037 C.3     1  UNL1        0.1761
     37 C          21.6298   74.4632   -5.3553 C.3     1  UNL1        0.2704
     38 H          23.5789   73.3268   -9.2317 H       1  UNL1        0.2105
     39 H          23.9835   75.1696   -9.3873 H       1  UNL1        0.2105
     40 H          22.2730   71.5416   -6.6792 H       1  UNL1        0.2106
     41 O          21.5803   77.6195   -8.4670 O.3     1  UNL1       -0.3794
     42 C          22.0603   77.6724   -7.1362 C.3     1  UNL1        0.1693
     43 H          21.3303   78.5116   -8.7557 H       1  UNL1        0.2105
@<TRIPOS>UNITY_ATOM_ATTR
2 1
charge -1
26 1
charge -1
@<TRIPOS>BOND
     1    25    28    1
     2    25    24    1
     3    25    26    1
     4    25    27    2
     5     1     4    1
     6     1    24    1
     7     1     2    1
     8     1     3    2
     9     6    11    1
    10     6    12    1
    11    29    36    1
    12    29    37    1
    13     7     9    1
    14     7    13    1
    15     8    10    1
    16     8    14    1
    17    28    37    1
    18     4     5    1
    19    30    33    1
    20    30    38    1
    21    31    34    1
    22    31    39    1
    23    32    35    1
    24    32    40    1
    25    41    42    1
    26    41    43    1
    27    15    19    2
    28    16    22    2
    29    17    12    1
    30    17    19   ar
    31    17    20   ar
    32    18    19   ar
    33    18    22   ar
    34    18    23    1
    35     9    10    1
    36     9    11    1
    37    10    12    1
    38    11     5    1
    39    33    34    1
    40    33    35    1
    41    34    36    1
    42    35    37    1
    43    36    42    1
    44    20    21   ar
    45    21    22   ar
@<TRIPOS>MOLECULE
*****
 43 45 0 0 0
SMALL
GASTEIGER

@<TRIPOS>ATOM
      1 P          23.2629   71.9703   -2.9899 P.3     1  UNL1        0.2189
      2 O          23.8333   73.3355   -3.6444 O.co2   1  UNL1       -0.4371
      3 O          24.2093   70.8066   -3.0257 O.2     1  UNL1       -0.5170
      4 O          21.8443   71.7455   -3.7349 O.3     1  UNL1       -0.3112
      5 C          21.4775   72.6368   -4.7736 C.3     1  UNL1        0.1811
      6 O          20.6100   70.6488   -5.8074 O.3     1  UNL1       -0.3308
      7 O          20.9634   72.0781   -8.4195 O.3     1  UNL1       -0.3794
      8 O          18.2903   72.3469   -7.9518 O.3     1  UNL1       -0.3779
      9 C          20.5719   72.6005   -7.1509 C.3     1  UNL1        0.1713
     10 C          19.1451   72.2021   -6.8360 C.3     1  UNL1        0.1895
     11 C          21.3545   71.8572   -6.0756 C.3     1  UNL1        0.1764
     12 C          19.3094   70.7533   -6.4094 C.3     1  UNL1        0.2383
     13 H          20.4770   72.5378   -9.1223 H       1  UNL1        0.2105
     14 H          18.2181   73.2857   -8.1844 H       1  UNL1        0.2106
     15 O          16.7465   69.7749   -7.0821 O.2     1  UNL1       -0.2464
     16 O          15.5905   69.2318   -2.6538 O.2     1  UNL1       -0.2670
     17 N          18.3187   70.3485   -5.4522 N.ar    1  UNL1       -0.2551
     18 N          16.1731   69.5051   -4.8766 N.ar    1  UNL1       -0.2743
     19 C          17.0624   69.8724   -5.8945 C.ar    1  UNL1        0.3323
     20 C          18.5972   70.4253   -4.0919 C.ar    1  UNL1        0.0869
     21 C          17.7378   70.0723   -3.1339 C.ar    1  UNL1        0.0795
     22 C          16.4030   69.5644   -3.5112 C.ar    1  UNL1        0.2626
     23 H          15.2915   69.1708   -5.1610 H       1  UNL1        0.1734
     24 O          22.8238   72.4349   -1.5051 O.3     1  UNL1       -0.2703
     25 P          22.6204   71.5867   -0.1442 P.3     1  UNL1        0.2208
     26 O          24.1107   71.0498    0.1847 O.co2   1  UNL1       -0.4371
     27 O          21.5809   70.5079   -0.2410 O.2     1  UNL1       -0.5170
     28 O          22.3279   72.6976    0.9896 O.3     1  UNL1       -0.2858
     29 O          23.3788   74.5811    1.9718 O.3     1  UNL1       -0.3258
     30 O          22.4729   72.4677    5.4016 O.3     1  UNL1       -0.3794
     31 O          20.9888   74.8429    4.7661 O.3     1  UNL1       -0.3794
     32 O          23.3488   71.0612    3.0280 O.3     1  UNL1       -0.3775
     33 C          22.2611   72.9413    4.0689 C.3     1  UNL1        0.1715
     34 C          22.1960   74.4694    4.1077 C.3     1  UNL1        0.1694
     35 C          23.4154   72.4747    3.1840 C.3     1  UNL1        0.1967
     36 C          22.2381   75.0618    2.6926 C.3     1  UNL1        0.1761
     37 C          23.3921   73.1606    1.8168 C.3     1  UNL1        0.2704
     38 H          21.7431   72.7602    5.9686 H       1  UNL1        0.2105
     39 H          20.9745   74.4621    5.6583 H       1  UNL1        0.2105
     40 H          23.3647   70.6387    3.9004 H       1  UNL1        0.2106
     41 O          22.4802   77.0449    1.3820 O.3     1  UNL1       -0.3794
     42 C          22.3333   76.5858    2.7132 C.3     1  UNL1        0.1693
     43 H          22.5416   78.0133    1.3796 H       1  UNL1        0.2105
@<TRIPOS>UNITY_ATOM_ATTR
2 1
charge -1
26 1
charge -1
@<TRIPOS>BOND
     1    25    28    1
     2    25    24    1
     3    25    26    1
     4    25    27    2
     5     1     4    1
     6     1    24    1
     7     1     2    1
     8     1     3    2
     9     6    11    1
    10     6    12    1
    11    29    36    1
    12    29    37    1
    13     7     9    1
    14     7    13    1
    15     8    10    1
    16     8    14    1
    17    28    37    1
    18     4     5    1
    19    30    33    1
    20    30    38    1
    21    31    34    1
    22    31    39    1
    23    32    35    1
    24    32    40    1
    25    41    42    1
    26    41    43    1
    27    15    19    2
    28    16    22    2
    29    17    12    1
    30    17    19   ar
    31    17    20   ar
    32    18    19   ar
    33    18    22   ar
    34    18    23    1
    35     9    10    1
    36     9    11    1
    37    10    12    1
    38    11     5    1
    39    33    34    1
    40    33    35    1
    41    34    36    1
    42    35    37    1
    43    36    42    1
    44    20    21   ar
    45    21    22   ar
@<TRIPOS>MOLECULE
*****
 43 45 0 0 0
SMALL
GASTEIGER

@<TRIPOS>ATOM
      1 P          22.9897   71.3509   -2.4404 P.3     1  UNL1        0.2189
      2 O          22.7400   72.9493   -2.4496 O.co2   1  UNL1       -0.4371
      3 O          24.2569   70.9035   -3.1077 O.2     1  UNL1       -0.5170
      4 O          21.6210   70.7404   -3.0503 O.3     1  UNL1       -0.3112
      5 C          20.9581   71.4593   -4.0757 C.3     1  UNL1        0.1811
      6 O          21.0805   70.6719   -6.3426 O.3     1  UNL1       -0.3308
      7 O          23.2419   72.7124   -6.7371 O.3     1  UNL1       -0.3794
      8 O          21.0683   73.9262   -7.8500 O.3     1  UNL1       -0.3779
      9 C          22.0601   72.7921   -5.9418 C.3     1  UNL1        0.1713
     10 C          20.8440   72.9803   -6.8245 C.3     1  UNL1        0.1895
     11 C          21.8061   71.4159   -5.3395 C.3     1  UNL1        0.1764
     12 C          20.6245   71.5763   -7.3619 C.3     1  UNL1        0.2383
     13 H          23.4247   73.5799   -7.1320 H       1  UNL1        0.2105
     14 H          21.2022   74.8031   -7.4577 H       1  UNL1        0.2106
     15 O          19.6306   70.7796   -9.8829 O.2     1  UNL1       -0.2464
     16 O          15.3021   70.5696   -8.3144 O.2     1  UNL1       -0.2670
     17 N          19.2422   71.3064   -7.6405 N.ar    1  UNL1       -0.2551
     18 N          17.4762   70.6756   -9.0998 N.ar    1  UNL1       -0.2743
     19 C          18.8473   70.9134   -8.9405 C.ar    1  UNL1        0.3323
     20 C          18.2945   71.4317   -6.6305 C.ar    1  UNL1        0.0869
     21 C          16.9905   71.2025   -6.7990 C.ar    1  UNL1        0.0795
     22 C          16.4951   70.7878   -8.1274 C.ar    1  UNL1        0.2626
     23 H          17.1778   70.4010   -9.9972 H       1  UNL1        0.1734
     24 O          22.8872   70.9761   -0.8713 O.3     1  UNL1       -0.2703
     25 P          21.8403   71.4476    0.2665 P.3     1  UNL1        0.2208
     26 O          21.5457   70.0849    1.0873 O.co2   1  UNL1       -0.4371
     27 O          20.6126   72.1253   -0.2696 O.2     1  UNL1       -0.5170
     28 O          22.7155   72.3514    1.2776 O.3     1  UNL1       -0.2858
     29 O          24.5598   71.9985    2.7236 O.3     1  UNL1       -0.3258
     30 O          22.1175   74.1339    5.2782 O.3     1  UNL1       -0.3794
     31 O          24.4589   75.3832    4.1804 O.3     1  UNL1       -0.3794
     32 O          20.9658   72.1927    3.4658 O.3     1  UNL1       -0.3775
     33 C          22.6917   73.7797    4.0172 C.3     1  UNL1        0.1715
     34 C          24.2055   73.9830    4.1055 C.3     1  UNL1        0.1694
     35 C          22.3622   72.3199    3.7111 C.3     1  UNL1        0.1967
     36 C          24.9179   73.3754    2.8896 C.3     1  UNL1        0.1761
     37 C          23.1603   71.7997    2.5142 C.3     1  UNL1        0.2704
     38 H          22.3227   75.0599    5.4783 H       1  UNL1        0.2105
     39 H          24.0031   75.7546    4.9521 H       1  UNL1        0.2105
     40 H          20.4717   72.5251    4.2308 H       1  UNL1        0.2106
     41 O          26.9413   72.1062    2.9541 O.3     1  UNL1       -0.3794
     42 C          26.4375   73.4270    3.0323 C.3     1  UNL1        0.1693
     43 H          27.9075   72.1236    3.0430 H       1  UNL1        0.2105
@<TRIPOS>UNITY_ATOM_ATTR
2 1
charge -1
26 1
charge -1
@<TRIPOS>BOND
     1    25    28    1
     2    25    24    1
     3    25    26    1
     4    25    27    2
     5     1     4    1
     6     1    24    1
     7     1     2    1
     8     1     3    2
     9     6    11    1
    10     6    12    1
    11    29    36    1
    12    29    37    1
    13     7     9    1
    14     7    13    1
    15     8    10    1
    16     8    14    1
    17    28    37    1
    18     4     5    1
    19    30    33    1
    20    30    38    1
    21    31    34    1
    22    31    39    1
    23    32    35    1
    24    32    40    1
    25    41    42    1
    26    41    43    1
    27    15    19    2
    28    16    22    2
    29    17    12    1
    30    17    19   ar
    31    17    20   ar
    32    18    19   ar
    33    18    22   ar
    34    18    23    1
    35     9    10    1
    36     9    11    1
    37    10    12    1
    38    11     5    1
    39    33    34    1
    40    33    35    1
    41    34    36    1
    42    35    37    1
    43    36    42    1
    44    20    21   ar
    45    21    22   ar
@<TRIPOS>MOLECULE
*****
 43 45 0 0 0
SMALL
GASTEIGER

@<TRIPOS>ATOM
      1 P          22.5271   72.1304   -3.6118 P.3     1  UNL1        0.2189
      2 O          23.4489   72.4247   -4.9084 O.co2   1  UNL1       -0.4371
      3 O          23.0754   71.1044   -2.6640 O.2     1  UNL1       -0.5170
      4 O          21.0711   71.8025   -4.2368 O.3     1  UNL1       -0.3112
      5 C          20.3539   70.6894   -3.7324 C.3     1  UNL1        0.1811
      6 O          18.4648   71.6642   -4.8526 O.3     1  UNL1       -0.3308
      7 O          16.7745   70.3181   -2.7737 O.3     1  UNL1       -0.3794
      8 O          16.5053   68.6611   -4.9228 O.3     1  UNL1       -0.3779
      9 C          17.9723   69.8591   -3.3983 C.3     1  UNL1        0.1713
     10 C          17.6900   69.4247   -4.8214 C.3     1  UNL1        0.1895
     11 C          18.8830   71.0625   -3.6079 C.3     1  UNL1        0.1764
     12 C          17.5902   70.7574   -5.5438 C.3     1  UNL1        0.2383
     13 H          16.1771   69.5670   -2.6293 H       1  UNL1        0.2105
     14 H          16.6188   67.8233   -4.4476 H       1  UNL1        0.2106
     15 O          15.8514   70.1921   -7.6967 O.2     1  UNL1       -0.2464
     16 O          19.2783   70.4392  -10.7686 O.2     1  UNL1       -0.2670
     17 N          18.0012   70.6684   -6.9166 N.ar    1  UNL1       -0.2551
     18 N          17.5591   70.3158   -9.2245 N.ar    1  UNL1       -0.2743
     19 C          17.0491   70.3784   -7.9215 C.ar    1  UNL1        0.3323
     20 C          19.3352   70.8681   -7.2549 C.ar    1  UNL1        0.0869
     21 C          19.8057   70.8036   -8.5022 C.ar    1  UNL1        0.0795
     22 C          18.8765   70.5054   -9.6110 C.ar    1  UNL1        0.2626
     23 H          16.9142   70.1147   -9.9411 H       1  UNL1        0.1734
     24 O          22.3241   73.5996   -2.9691 O.3     1  UNL1       -0.2703
     25 P          21.5865   74.0712   -1.6102 P.3     1  UNL1        0.2208
     26 O          20.0510   73.6190   -1.8455 O.co2   1  UNL1       -0.4371
     27 O          21.7610   75.5272   -1.2888 O.2     1  UNL1       -0.5170
     28 O          22.1384   73.0649   -0.4754 O.3     1  UNL1       -0.2858
     29 O          23.1162   74.4366    1.1916 O.3     1  UNL1       -0.3258
     30 O          23.8846   70.7337    2.8497 O.3     1  UNL1       -0.3794
     31 O          21.8733   72.4197    4.0158 O.3     1  UNL1       -0.3794
     32 O          24.0931   71.1051   -0.0135 O.3     1  UNL1       -0.3775
     33 C          23.1310   71.7003    2.1128 C.3     1  UNL1        0.1715
     34 C          22.8124   72.8716    3.0442 C.3     1  UNL1        0.1694
     35 C          23.9576   72.1727    0.9182 C.3     1  UNL1        0.1967
     36 C          22.2412   74.0619    2.2619 C.3     1  UNL1        0.1761
     37 C          23.3267   73.3906    0.2410 C.3     1  UNL1        0.2704
     38 H          23.3652   70.4293    3.6093 H       1  UNL1        0.2105
     39 H          22.2460   71.6677    4.5023 H       1  UNL1        0.2105
     40 H          24.4939   70.3403    0.4273 H       1  UNL1        0.2106
     41 O          20.7120   75.3589    3.5613 O.3     1  UNL1       -0.3794
     42 C          22.0638   75.2948    3.1454 C.3     1  UNL1        0.1693
     43 H          20.5844   76.1386    4.1248 H       1  UNL1        0.2105
@<TRIPOS>UNITY_ATOM_ATTR
2 1
charge -1
26 1
charge -1
@<TRIPOS>BOND
     1    25    28    1
     2    25    24    1
     3    25    26    1
     4    25    27    2
     5     1     4    1
     6     1    24    1
     7     1     2    1
     8     1     3    2
     9     6    11    1
    10     6    12    1
    11    29    36    1
    12    29    37    1
    13     7     9    1
    14     7    13    1
    15     8    10    1
    16     8    14    1
    17    28    37    1
    18     4     5    1
    19    30    33    1
    20    30    38    1
    21    31    34    1
    22    31    39    1
    23    32    35    1
    24    32    40    1
    25    41    42    1
    26    41    43    1
    27    15    19    2
    28    16    22    2
    29    17    12    1
    30    17    19   ar
    31    17    20   ar
    32    18    19   ar
    33    18    22   ar
    34    18    23    1
    35     9    10    1
    36     9    11    1
    37    10    12    1
    38    11     5    1
    39    33    34    1
    40    33    35    1
    41    34    36    1
    42    35    37    1
    43    36    42    1
    44    20    21   ar
    45    21    22   ar
@<TRIPOS>MOLECULE
*****
 43 45 0 0 0
SMALL
GASTEIGER

@<TRIPOS>ATOM
      1 P          23.2239   71.9911   -3.1752 P.3     1  UNL1        0.2189
      2 O          24.2399   72.7840   -4.1531 O.co2   1  UNL1       -0.4371
      3 O          23.8653   70.9532   -2.3018 O.2     1  UNL1       -0.5170
      4 O          22.0665   71.4542   -4.1703 O.3     1  UNL1       -0.3112
      5 C          21.5354   72.3473   -5.1337 C.3     1  UNL1        0.1811
      6 O          20.4979   70.4131   -6.1115 O.3     1  UNL1       -0.3308
      7 O          20.7292   71.8469   -8.7348 O.3     1  UNL1       -0.3794
      8 O          18.1139   72.2411   -8.0705 O.3     1  UNL1       -0.3779
      9 C          20.4576   72.3763   -7.4382 C.3     1  UNL1        0.1713
     10 C          19.0399   72.0450   -7.0213 C.3     1  UNL1        0.1895
     11 C          21.2793   71.5862   -6.4272 C.3     1  UNL1        0.1764
     12 C          19.1635   70.5861   -6.6157 C.3     1  UNL1        0.2383
     13 H          20.2158   72.3359   -9.3976 H       1  UNL1        0.2105
     14 H          18.0711   73.1844   -8.2921 H       1  UNL1        0.2106
     15 O          16.4776   69.8553   -7.0949 O.2     1  UNL1       -0.2464
     16 O          15.6610   69.2077   -2.6055 O.2     1  UNL1       -0.2670
     17 N          18.2268   70.2214   -5.5905 N.ar    1  UNL1       -0.2551
     18 N          16.0732   69.5332   -4.8592 N.ar    1  UNL1       -0.2743
     19 C          16.9009   69.8718   -5.9373 C.ar    1  UNL1        0.3323
     20 C          18.6260   70.2124   -4.2584 C.ar    1  UNL1        0.0869
     21 C          17.8241   69.8884   -3.2420 C.ar    1  UNL1        0.0795
     22 C          16.4230   69.5107   -3.5183 C.ar    1  UNL1        0.2626
     23 H          15.1450   69.2866   -5.0766 H       1  UNL1        0.1734
     24 O          22.4872   73.1847   -2.3716 O.3     1  UNL1       -0.2703
     25 P          23.0564   74.2513   -1.2987 P.3     1  UNL1        0.2208
     26 O          22.1493   75.5644   -1.5638 O.co2   1  UNL1       -0.4371
     27 O          24.5354   74.4908   -1.3943 O.2     1  UNL1       -0.5170
     28 O          22.5601   73.6953    0.1329 O.3     1  UNL1       -0.2858
     29 O          24.5705   72.9980    1.1764 O.3     1  UNL1       -0.3258
     30 O          21.9281   72.2285    4.2547 O.3     1  UNL1       -0.3794
     31 O          23.7330   74.4531    4.4582 O.3     1  UNL1       -0.3794
     32 O          21.1477   71.7041    1.5169 O.3     1  UNL1       -0.3775
     33 C          22.4427   72.9418    3.1270 C.3     1  UNL1        0.1715
     34 C          23.8505   73.4320    3.4713 C.3     1  UNL1        0.1694
     35 C          22.4791   72.0071    1.9194 C.3     1  UNL1        0.1967
     36 C          24.5689   73.9715    2.2272 C.3     1  UNL1        0.1761
     37 C          23.2587   72.6197    0.7544 C.3     1  UNL1        0.2704
     38 H          21.9018   72.8165    5.0248 H       1  UNL1        0.2105
     39 H          23.2772   74.0996    5.2382 H       1  UNL1        0.2105
     40 H          20.6648   71.3167    2.2630 H       1  UNL1        0.2106
     41 O          26.4183   73.6665    3.7090 O.3     1  UNL1       -0.3794
     42 C          26.0278   74.3194    2.5150 C.3     1  UNL1        0.1693
     43 H          27.3449   73.8786    3.9045 H       1  UNL1        0.2105
@<TRIPOS>UNITY_ATOM_ATTR
2 1
charge -1
26 1
charge -1
@<TRIPOS>BOND
     1    25    28    1
     2    25    24    1
     3    25    26    1
     4    25    27    2
     5     1     4    1
     6     1    24    1
     7     1     2    1
     8     1     3    2
     9     6    11    1
    10     6    12    1
    11    29    36    1
    12    29    37    1
    13     7     9    1
    14     7    13    1
    15     8    10    1
    16     8    14    1
    17    28    37    1
    18     4     5    1
    19    30    33    1
    20    30    38    1
    21    31    34    1
    22    31    39    1
    23    32    35    1
    24    32    40    1
    25    41    42    1
    26    41    43    1
    27    15    19    2
    28    16    22    2
    29    17    12    1
    30    17    19   ar
    31    17    20   ar
    32    18    19   ar
    33    18    22   ar
    34    18    23    1
    35     9    10    1
    36     9    11    1
    37    10    12    1
    38    11     5    1
    39    33    34    1
    40    33    35    1
    41    34    36    1
    42    35    37    1
    43    36    42    1
    44    20    21   ar
    45    21    22   ar
@<TRIPOS>MOLECULE
*****
 43 45 0 0 0
SMALL
GASTEIGER

@<TRIPOS>ATOM
      1 P          21.7990   72.3985   -5.5655 P.3     1  UNL1        0.2189
      2 O          21.0801   73.8292   -5.3341 O.co2   1  UNL1       -0.4371
      3 O          23.1107   72.4584   -6.2916 O.2     1  UNL1       -0.5170
      4 O          20.6513   71.4951   -6.2615 O.3     1  UNL1       -0.3112
      5 C          20.1727   71.8768   -7.5395 C.3     1  UNL1        0.1811
      6 O          18.8929   69.8827   -7.1399 O.3     1  UNL1       -0.3308
      7 O          18.1307   70.0160  -10.0368 O.3     1  UNL1       -0.3794
      8 O          15.9243   71.0285   -8.7944 O.3     1  UNL1       -0.3779
      9 C          18.3348   71.0793   -9.1077 C.3     1  UNL1        0.1713
     10 C          17.1707   71.1652   -8.1428 C.3     1  UNL1        0.1895
     11 C          19.4826   70.6840   -8.1870 C.3     1  UNL1        0.1764
     12 C          17.4631   70.0159   -7.1932 C.3     1  UNL1        0.2383
     13 H          17.4024   70.2457  -10.6358 H       1  UNL1        0.2105
     14 H          15.7846   71.7835   -9.3870 H       1  UNL1        0.2106
     15 O          16.2921   68.0493   -5.5382 O.2     1  UNL1       -0.2464
     16 O          15.5974   71.0706   -2.1280 O.2     1  UNL1       -0.2670
     17 N          16.9679   70.2610   -5.8680 N.ar    1  UNL1       -0.2551
     18 N          15.9473   69.5552   -3.8415 N.ar    1  UNL1       -0.2743
     19 C          16.3971   69.2044   -5.1208 C.ar    1  UNL1        0.3323
     20 C          17.0512   71.5372   -5.3220 C.ar    1  UNL1        0.0869
     21 C          16.6164   71.8557   -4.1010 C.ar    1  UNL1        0.0795
     22 C          16.0068   70.8095   -3.2550 C.ar    1  UNL1        0.2626
     23 H          15.5456   68.8354   -3.3028 H       1  UNL1        0.1734
     24 O          21.8847   71.7888   -4.0709 O.3     1  UNL1       -0.2703
     25 P          23.0519   71.8723   -2.9557 P.3     1  UNL1        0.2208
     26 O          23.5361   73.4137   -3.0401 O.co2   1  UNL1       -0.4371
     27 O          24.1515   70.8668   -3.1394 O.2     1  UNL1       -0.5170
     28 O          22.2766   71.7652   -1.5442 O.3     1  UNL1       -0.2858
     29 O          23.9855   72.4216   -0.0390 O.3     1  UNL1       -0.3258
     30 O          20.8201   72.2185    2.6047 O.3     1  UNL1       -0.3794
     31 O          21.8581   74.7817    1.8298 O.3     1  UNL1       -0.3794
     32 O          21.0614   70.2588    0.4879 O.3     1  UNL1       -0.3775
     33 C          21.4542   72.4739    1.3485 C.3     1  UNL1        0.1715
     34 C          22.5212   73.5498    1.5598 C.3     1  UNL1        0.1694
     35 C          22.0877   71.1813    0.8373 C.3     1  UNL1        0.1967
     36 C          23.4217   73.6870    0.3248 C.3     1  UNL1        0.1761
     37 C          23.0021   71.4365   -0.3623 C.3     1  UNL1        0.2704
     38 H          20.4153   73.0351    2.9346 H       1  UNL1        0.2105
     39 H          21.2924   74.6813    2.6115 H       1  UNL1        0.2105
     40 H          20.4896   70.1054    1.2556 H       1  UNL1        0.2106
     41 O          24.8295   75.3721   -0.6172 O.3     1  UNL1       -0.3794
     42 C          24.5885   74.6410    0.5709 C.3     1  UNL1        0.1693
     43 H          25.5695   75.9837   -0.4753 H       1  UNL1        0.2105
@<TRIPOS>UNITY_ATOM_ATTR
2 1
charge -1
26 1
charge -1
@<TRIPOS>BOND
     1    25    28    1
     2    25    24    1
     3    25    26    1
     4    25    27    2
     5     1     4    1
     6     1    24    1
     7     1     2    1
     8     1     3    2
     9     6    11    1
    10     6    12    1
    11    29    36    1
    12    29    37    1
    13     7     9    1
    14     7    13    1
    15     8    10    1
    16     8    14    1
    17    28    37    1
    18     4     5    1
    19    30    33    1
    20    30    38    1
    21    31    34    1
    22    31    39    1
    23    32    35    1
    24    32    40    1
    25    41    42    1
    26    41    43    1
    27    15    19    2
    28    16    22    2
    29    17    12    1
    30    17    19   ar
    31    17    20   ar
    32    18    19   ar
    33    18    22   ar
    34    18    23    1
    35     9    10    1
    36     9    11    1
    37    10    12    1
    38    11     5    1
    39    33    34    1
    40    33    35    1
    41    34    36    1
    42    35    37    1
    43    36    42    1
    44    20    21   ar
    45    21    22   ar
@<TRIPOS>MOLECULE
*****
 43 45 0 0 0
SMALL
GASTEIGER

@<TRIPOS>ATOM
      1 P          21.9314   72.4498   -5.8836 P.3     1  UNL1        0.2189
      2 O          21.1652   73.8158   -5.4781 O.co2   1  UNL1       -0.4371
      3 O          23.1220   72.6326   -6.7782 O.2     1  UNL1       -0.5170
      4 O          20.7552   71.5024   -6.4640 O.3     1  UNL1       -0.3112
      5 C          20.0866   71.9027   -7.6474 C.3     1  UNL1        0.1811
      6 O          18.8173   69.9133   -7.1946 O.3     1  UNL1       -0.3308
      7 O          18.0458   69.9713  -10.0915 O.3     1  UNL1       -0.3794
      8 O          15.8385   71.0042   -8.8677 O.3     1  UNL1       -0.3779
      9 C          18.2478   71.0582   -9.1897 C.3     1  UNL1        0.1713
     10 C          17.0862   71.1627   -8.2236 C.3     1  UNL1        0.1895
     11 C          19.4002   70.6911   -8.2631 C.3     1  UNL1        0.1764
     12 C          17.3868   70.0387   -7.2467 C.3     1  UNL1        0.2383
     13 H          17.3147   70.1827  -10.6937 H       1  UNL1        0.2105
     14 H          15.6935   71.7436   -9.4784 H       1  UNL1        0.2106
     15 O          16.4362   68.0725   -5.4555 O.2     1  UNL1       -0.2464
     16 O          15.5207   71.2118   -2.2078 O.2     1  UNL1       -0.2670
     17 N          16.8945   70.3142   -5.9264 N.ar    1  UNL1       -0.2551
     18 N          15.9813   69.6372   -3.8398 N.ar    1  UNL1       -0.2743
     19 C          16.4392   69.2550   -5.1071 C.ar    1  UNL1        0.3323
     20 C          16.8668   71.6227   -5.4562 C.ar    1  UNL1        0.0869
     21 C          16.4258   71.9706   -4.2456 C.ar    1  UNL1        0.0795
     22 C          15.9327   70.9240   -3.3272 C.ar    1  UNL1        0.2626
     23 H          15.6589   68.9161   -3.2517 H       1  UNL1        0.1734
     24 O          22.2634   71.7801   -4.4503 O.3     1  UNL1       -0.2703
     25 P          23.4838   72.0283   -3.4198 P.3     1  UNL1        0.2208
     26 O          24.4256   73.0824   -4.2070 O.co2   1  UNL1       -0.4371
     27 O          24.1865   70.7749   -2.9848 O.2     1  UNL1       -0.5170
     28 O          22.8338   72.8832   -2.2150 O.3     1  UNL1       -0.2858
     29 O          21.5271   71.7667   -0.5832 O.3     1  UNL1       -0.3258
     30 O          20.1475   75.6166   -0.0121 O.3     1  UNL1       -0.3794
     31 O          21.8689   74.4213    1.9517 O.3     1  UNL1       -0.3794
     32 O          20.7225   74.6707   -2.6868 O.3     1  UNL1       -0.3775
     33 C          21.1205   74.6123   -0.3121 C.3     1  UNL1        0.1715
     34 C          21.2455   73.6881    0.9009 C.3     1  UNL1        0.1694
     35 C          20.6654   73.8277   -1.5412 C.3     1  UNL1        0.1967
     36 C          22.0670   72.4370    0.5618 C.3     1  UNL1        0.1761
     37 C          21.5182   72.5767   -1.7603 C.3     1  UNL1        0.2704
     38 H          20.4307   76.1187    0.7671 H       1  UNL1        0.2105
     39 H          21.3404   75.2089    2.1557 H       1  UNL1        0.2105
     40 H          20.1784   75.4587   -2.5357 H       1  UNL1        0.2106
     41 O          21.6716   70.1688    1.2002 O.3     1  UNL1       -0.3794
     42 C          22.0720   71.4281    1.7082 C.3     1  UNL1        0.1693
     43 H          21.6704   69.5165    1.9187 H       1  UNL1        0.2105
@<TRIPOS>UNITY_ATOM_ATTR
2 1
charge -1
26 1
charge -1
@<TRIPOS>BOND
     1    25    28    1
     2    25    24    1
     3    25    26    1
     4    25    27    2
     5     1     4    1
     6     1    24    1
     7     1     2    1
     8     1     3    2
     9     6    11    1
    10     6    12    1
    11    29    36    1
    12    29    37    1
    13     7     9    1
    14     7    13    1
    15     8    10    1
    16     8    14    1
    17    28    37    1
    18     4     5    1
    19    30    33    1
    20    30    38    1
    21    31    34    1
    22    31    39    1
    23    32    35    1
    24    32    40    1
    25    41    42    1
    26    41    43    1
    27    15    19    2
    28    16    22    2
    29    17    12    1
    30    17    19   ar
    31    17    20   ar
    32    18    19   ar
    33    18    22   ar
    34    18    23    1
    35     9    10    1
    36     9    11    1
    37    10    12    1
    38    11     5    1
    39    33    34    1
    40    33    35    1
    41    34    36    1
    42    35    37    1
    43    36    42    1
    44    20    21   ar
    45    21    22   ar
@<TRIPOS>MOLECULE
*****
 43 45 0 0 0
SMALL
GASTEIGER

@<TRIPOS>ATOM
      1 P          21.0835   71.8901   -2.4883 P.3     1  UNL1        0.2189
      2 O          22.2295   71.6282   -1.3768 O.co2   1  UNL1       -0.4371
      3 O          20.3249   73.1745   -2.3260 O.2     1  UNL1       -0.5170
      4 O          20.1935   70.5393   -2.4543 O.3     1  UNL1       -0.3112
      5 C          19.5744   70.1072   -3.6534 C.3     1  UNL1        0.1811
      6 O          17.9187   71.3284   -4.8948 O.3     1  UNL1       -0.3308
      7 O          15.8856   69.9671   -3.1615 O.3     1  UNL1       -0.3794
      8 O          15.7632   68.5202   -5.4698 O.3     1  UNL1       -0.3779
      9 C          17.1141   69.4597   -3.6798 C.3     1  UNL1        0.1713
     10 C          16.9799   69.1686   -5.1600 C.3     1  UNL1        0.1895
     11 C          18.1317   70.5936   -3.6697 C.3     1  UNL1        0.1764
     12 C          17.0716   70.5595   -5.7642 C.3     1  UNL1        0.2383
     13 H          15.2201   69.2607   -3.1578 H       1  UNL1        0.2105
     14 H          15.7531   67.6397   -5.0631 H       1  UNL1        0.2106
     15 O          15.5692   70.4864   -8.1549 O.2     1  UNL1       -0.2464
     16 O          19.3708   70.5166  -10.7604 O.2     1  UNL1       -0.2670
     17 N          17.6430   70.5478   -7.0813 N.ar    1  UNL1       -0.2551
     18 N          17.4633   70.5017   -9.4503 N.ar    1  UNL1       -0.2743
     19 C          16.8002   70.5095   -8.2165 C.ar    1  UNL1        0.3323
     20 C          19.0246   70.5747   -7.2376 C.ar    1  UNL1        0.0869
     21 C          19.6413   70.5655   -8.4211 C.ar    1  UNL1        0.0795
     22 C          18.8335   70.5260   -9.6572 C.ar    1  UNL1        0.2626
     23 H          16.8965   70.4747  -10.2551 H       1  UNL1        0.1734
     24 O          21.8918   71.7577   -3.8819 O.3     1  UNL1       -0.2703
     25 P          22.1178   72.8161   -5.0827 P.3     1  UNL1        0.2208
     26 O          20.6146   73.1179   -5.5991 O.co2   1  UNL1       -0.4371
     27 O          23.0567   72.3407   -6.1533 O.2     1  UNL1       -0.5170
     28 O          22.5769   74.1771   -4.3465 O.3     1  UNL1       -0.2858
     29 O          21.5688   76.2644   -3.8532 O.3     1  UNL1       -0.3258
     30 O          25.1980   77.6084   -5.2929 O.3     1  UNL1       -0.3794
     31 O          24.6402   77.7713   -2.4804 O.3     1  UNL1       -0.3794
     32 O          23.9069   75.3324   -6.5308 O.3     1  UNL1       -0.3775
     33 C          24.3204   76.7149   -4.6024 C.3     1  UNL1        0.1715
     34 C          23.6495   77.4862   -3.4640 C.3     1  UNL1        0.1694
     35 C          23.2751   76.1853   -5.5823 C.3     1  UNL1        0.1967
     36 C          22.5016   76.6758   -2.8470 C.3     1  UNL1        0.1761
     37 C          22.1528   75.4367   -4.8610 C.3     1  UNL1        0.2704
     38 H          25.8645   77.9479   -4.6765 H       1  UNL1        0.2105
     39 H          25.3595   78.2829   -2.8830 H       1  UNL1        0.2105
     40 H          24.6151   75.8180   -6.9808 H       1  UNL1        0.2106
     41 O          21.7560   76.7988   -0.5803 O.3     1  UNL1       -0.3794
     42 C          21.7181   77.4867   -1.8171 C.3     1  UNL1        0.1693
     43 H          21.2615   77.3035    0.0849 H       1  UNL1        0.2105
@<TRIPOS>UNITY_ATOM_ATTR
2 1
charge -1
26 1
charge -1
@<TRIPOS>BOND
     1    25    28    1
     2    25    24    1
     3    25    26    1
     4    25    27    2
     5     1     4    1
     6     1    24    1
     7     1     2    1
     8     1     3    2
     9     6    11    1
    10     6    12    1
    11    29    36    1
    12    29    37    1
    13     7     9    1
    14     7    13    1
    15     8    10    1
    16     8    14    1
    17    28    37    1
    18     4     5    1
    19    30    33    1
    20    30    38    1
    21    31    34    1
    22    31    39    1
    23    32    35    1
    24    32    40    1
    25    41    42    1
    26    41    43    1
    27    15    19    2
    28    16    22    2
    29    17    12    1
    30    17    19   ar
    31    17    20   ar
    32    18    19   ar
    33    18    22   ar
    34    18    23    1
    35     9    10    1
    36     9    11    1
    37    10    12    1
    38    11     5    1
    39    33    34    1
    40    33    35    1
    41    34    36    1
    42    35    37    1
    43    36    42    1
    44    20    21   ar
    45    21    22   ar
@<TRIPOS>MOLECULE
*****
 43 45 0 0 0
SMALL
GASTEIGER

@<TRIPOS>ATOM
      1 P          22.1197   75.4661   -3.2701 P.3     1  UNL1        0.2189
      2 O          23.4820   76.3054   -3.5085 O.co2   1  UNL1       -0.4371
      3 O          21.2292   75.3485   -4.4720 O.2     1  UNL1       -0.5170
      4 O          21.4562   76.1637   -1.9696 O.3     1  UNL1       -0.3112
      5 C          21.7608   75.6364   -0.6902 C.3     1  UNL1        0.1811
      6 O          21.0287   73.4214   -0.1145 O.3     1  UNL1       -0.3308
      7 O          18.7485   74.7478    1.3111 O.3     1  UNL1       -0.3794
      8 O          20.4471   74.1296    3.3529 O.3     1  UNL1       -0.3779
      9 C          20.1040   75.1744    1.1846 C.3     1  UNL1        0.1713
     10 C          21.0034   74.3382    2.0708 C.3     1  UNL1        0.1895
     11 C          20.5876   74.7936   -0.2091 C.3     1  UNL1        0.1764
     12 C          21.1268   73.0525    1.2709 C.3     1  UNL1        0.2383
     13 H          18.4175   74.9805    2.1933 H       1  UNL1        0.2105
     14 H          20.3894   74.9765    3.8222 H       1  UNL1        0.2106
     15 O          21.5271   70.2683    1.0144 O.2     1  UNL1       -0.2464
     16 O          25.9838   70.6209    2.1346 O.2     1  UNL1       -0.2670
     17 N          22.3817   72.3900    1.4892 N.ar    1  UNL1       -0.2551
     18 N          23.7459   70.4462    1.5722 N.ar    1  UNL1       -0.2743
     19 C          22.4758   70.9872    1.3352 C.ar    1  UNL1        0.3323
     20 C          23.5021   73.1297    1.8516 C.ar    1  UNL1        0.0869
     21 C          24.7058   72.5985    2.0753 C.ar    1  UNL1        0.0795
     22 C          24.8896   71.1395    1.9356 C.ar    1  UNL1        0.2626
     23 H          23.8354   69.4707    1.4712 H       1  UNL1        0.1734
     24 O          22.6580   74.0561   -2.6911 O.3     1  UNL1       -0.2703
     25 P          22.9153   72.6374   -3.4217 P.3     1  UNL1        0.2208
     26 O          22.8001   71.5703   -2.2111 O.co2   1  UNL1       -0.4371
     27 O          24.2031   72.5655   -4.1901 O.2     1  UNL1       -0.5170
     28 O          21.5913   72.3896   -4.3108 O.3     1  UNL1       -0.2858
     29 O          20.2099   70.5678   -4.9346 O.3     1  UNL1       -0.3258
     30 O          20.8400   72.2253   -8.6638 O.3     1  UNL1       -0.3794
     31 O          18.2691   72.4887   -7.4110 O.3     1  UNL1       -0.3794
     32 O          22.9935   72.1588   -6.7306 O.3     1  UNL1       -0.3775
     33 C          20.6425   72.2410   -7.2474 C.3     1  UNL1        0.1715
     34 C          19.2846   71.6041   -6.9454 C.3     1  UNL1        0.1694
     35 C          21.7668   71.4530   -6.5779 C.3     1  UNL1        0.1967
     36 C          19.1174   71.3424   -5.4425 C.3     1  UNL1        0.1761
     37 C          21.4783   71.2056   -5.0961 C.3     1  UNL1        0.2704
     38 H          20.1297   72.7244   -9.0949 H       1  UNL1        0.2105
     39 H          18.3864   72.6460   -8.3611 H       1  UNL1        0.2105
     40 H          23.1649   72.3089   -7.6729 H       1  UNL1        0.2106
     41 O          16.9872   71.3889   -4.3613 O.3     1  UNL1       -0.3794
     42 C          17.8390   70.5653   -5.1361 C.3     1  UNL1        0.1693
     43 H          16.1693   70.9074   -4.1589 H       1  UNL1        0.2105
@<TRIPOS>UNITY_ATOM_ATTR
2 1
charge -1
26 1
charge -1
@<TRIPOS>BOND
     1    25    28    1
     2    25    24    1
     3    25    26    1
     4    25    27    2
     5     1     4    1
     6     1    24    1
     7     1     2    1
     8     1     3    2
     9     6    11    1
    10     6    12    1
    11    29    36    1
    12    29    37    1
    13     7     9    1
    14     7    13    1
    15     8    10    1
    16     8    14    1
    17    28    37    1
    18     4     5    1
    19    30    33    1
    20    30    38    1
    21    31    34    1
    22    31    39    1
    23    32    35    1
    24    32    40    1
    25    41    42    1
    26    41    43    1
    27    15    19    2
    28    16    22    2
    29    17    12    1
    30    17    19   ar
    31    17    20   ar
    32    18    19   ar
    33    18    22   ar
    34    18    23    1
    35     9    10    1
    36     9    11    1
    37    10    12    1
    38    11     5    1
    39    33    34    1
    40    33    35    1
    41    34    36    1
    42    35    37    1
    43    36    42    1
    44    20    21   ar
    45    21    22   ar
@<TRIPOS>MOLECULE
*****
 43 45 0 0 0
SMALL
GASTEIGER

@<TRIPOS>ATOM
      1 P          22.8419   73.0982   -4.0660 P.3     1  UNL1        0.2189
      2 O          24.2141   72.2432   -4.1245 O.co2   1  UNL1       -0.4371
      3 O          23.0227   74.5878   -4.0716 O.2     1  UNL1       -0.5170
      4 O          22.0596   72.4902   -2.7868 O.3     1  UNL1       -0.3112
      5 C          21.2571   71.3369   -2.9706 C.3     1  UNL1        0.1811
      6 O          20.5562   70.6820   -0.7675 O.3     1  UNL1       -0.3308
      7 O          18.3830   72.7280   -1.0541 O.3     1  UNL1       -0.3794
      8 O          20.2129   74.0186    0.5024 O.3     1  UNL1       -0.3779
      9 C          19.7286   72.7690   -1.5262 C.3     1  UNL1        0.1713
     10 C          20.6822   73.0160   -0.3759 C.3     1  UNL1        0.1895
     11 C          20.1155   71.3616   -1.9635 C.3     1  UNL1        0.1764
     12 C          20.7460   71.6472    0.2800 C.3     1  UNL1        0.2383
     13 H          18.1133   73.6158   -0.7694 H       1  UNL1        0.2105
     14 H          20.1905   74.8702    0.0387 H       1  UNL1        0.2106
     15 O          21.2589   72.0672    3.0257 O.2     1  UNL1       -0.2464
     16 O          25.6332   70.6770    2.6089 O.2     1  UNL1       -0.2670
     17 N          22.0099   71.4028    0.9158 N.ar    1  UNL1       -0.2551
     18 N          23.4365   71.3745    2.8159 N.ar    1  UNL1       -0.2743
     19 C          22.1629   71.6472    2.3005 C.ar    1  UNL1        0.3323
     20 C          23.0810   70.9259    0.1680 C.ar    1  UNL1        0.0869
     21 C          24.2895   70.6721    0.6744 C.ar    1  UNL1        0.0795
     22 C          24.5331   70.9008    2.1133 C.ar    1  UNL1        0.2626
     23 H          23.5666   71.5376    3.7783 H       1  UNL1        0.1734
     24 O          21.9985   72.5182   -5.3171 O.3     1  UNL1       -0.2703
     25 P          21.1679   73.2745   -6.4793 P.3     1  UNL1        0.2208
     26 O          22.0067   72.9300   -7.8191 O.co2   1  UNL1       -0.4371
     27 O          20.9656   74.7420   -6.2356 O.2     1  UNL1       -0.5170
     28 O          19.8025   72.4261   -6.6238 O.3     1  UNL1       -0.2858
     29 O          19.1814   70.2732   -5.8519 O.3     1  UNL1       -0.3258
     30 O          17.3931   70.1814   -9.5727 O.3     1  UNL1       -0.3794
     31 O          15.7627   70.4310   -7.2217 O.3     1  UNL1       -0.3794
     32 O          19.9799   71.4385   -9.2445 O.3     1  UNL1       -0.3775
     33 C          17.8384   70.7863   -8.3557 C.3     1  UNL1        0.1715
     34 C          17.1439   70.0825   -7.1882 C.3     1  UNL1        0.1694
     35 C          19.3548   70.6356   -8.2490 C.3     1  UNL1        0.1967
     36 C          17.7657   70.4911   -5.8460 C.3     1  UNL1        0.1761
     37 C          19.8644   71.0218   -6.8593 C.3     1  UNL1        0.2704
     38 H          16.4311   70.2740   -9.6468 H       1  UNL1        0.2105
     39 H          15.3822   70.1681   -8.0745 H       1  UNL1        0.2105
     40 H          19.6491   71.1841  -10.1196 H       1  UNL1        0.2106
     41 O          16.6012   68.5075   -5.1993 O.3     1  UNL1       -0.3794
     42 C          17.1950   69.6840   -4.6820 C.3     1  UNL1        0.1693
     43 H          16.2340   67.9836   -4.4696 H       1  UNL1        0.2105
@<TRIPOS>UNITY_ATOM_ATTR
2 1
charge -1
26 1
charge -1
@<TRIPOS>BOND
     1    25    28    1
     2    25    24    1
     3    25    26    1
     4    25    27    2
     5     1     4    1
     6     1    24    1
     7     1     2    1
     8     1     3    2
     9     6    11    1
    10     6    12    1
    11    29    36    1
    12    29    37    1
    13     7     9    1
    14     7    13    1
    15     8    10    1
    16     8    14    1
    17    28    37    1
    18     4     5    1
    19    30    33    1
    20    30    38    1
    21    31    34    1
    22    31    39    1
    23    32    35    1
    24    32    40    1
    25    41    42    1
    26    41    43    1
    27    15    19    2
    28    16    22    2
    29    17    12    1
    30    17    19   ar
    31    17    20   ar
    32    18    19   ar
    33    18    22   ar
    34    18    23    1
    35     9    10    1
    36     9    11    1
    37    10    12    1
    38    11     5    1
    39    33    34    1
    40    33    35    1
    41    34    36    1
    42    35    37    1
    43    36    42    1
    44    20    21   ar
    45    21    22   ar
@<TRIPOS>MOLECULE
*****
 43 45 0 0 0
SMALL
GASTEIGER

@<TRIPOS>ATOM
      1 P          22.6285   72.1831   -3.8634 P.3     1  UNL1        0.2189
      2 O          23.8267   71.1859   -3.4307 O.co2   1  UNL1       -0.4371
      3 O          22.1070   73.0616   -2.7644 O.2     1  UNL1       -0.5170
      4 O          21.5415   71.2060   -4.5574 O.3     1  UNL1       -0.3112
      5 C          20.8238   70.3014   -3.7361 C.3     1  UNL1        0.1811
      6 O          18.9906   71.5440   -4.6683 O.3     1  UNL1       -0.3308
      7 O          17.3294   70.3951   -2.4521 O.3     1  UNL1       -0.3794
      8 O          16.6433   68.8337   -4.5801 O.3     1  UNL1       -0.3779
      9 C          18.3919   69.7922   -3.1890 C.3     1  UNL1        0.1713
     10 C          17.9249   69.4288   -4.5831 C.3     1  UNL1        0.1895
     11 C          19.4347   70.8662   -3.4726 C.3     1  UNL1        0.1764
     12 C          17.9417   70.7774   -5.2824 C.3     1  UNL1        0.2383
     13 H          16.6511   69.7284   -2.2589 H       1  UNL1        0.2105
     14 H          16.6847   67.9787   -4.1241 H       1  UNL1        0.2106
     15 O          15.9679   70.3299   -7.2527 O.2     1  UNL1       -0.2464
     16 O          19.0881   70.3507  -10.6446 O.2     1  UNL1       -0.2670
     17 N          18.2103   70.6621   -6.6881 N.ar    1  UNL1       -0.2551
     18 N          17.5231   70.3408   -8.9400 N.ar    1  UNL1       -0.2743
     19 C          17.1477   70.4365   -7.5939 C.ar    1  UNL1        0.3323
     20 C          19.5152   70.7729   -7.1557 C.ar    1  UNL1        0.0869
     21 C          19.8567   70.6781   -8.4424 C.ar    1  UNL1        0.0795
     22 C          18.8062   70.4428   -9.4539 C.ar    1  UNL1        0.2626
     23 H          16.7996   70.1834   -9.5893 H       1  UNL1        0.1734
     24 O          23.2558   72.9806   -5.1217 O.3     1  UNL1       -0.2703
     25 P          22.5447   73.7317   -6.3639 P.3     1  UNL1        0.2208
     26 O          21.1720   74.2959   -5.7198 O.co2   1  UNL1       -0.4371
     27 O          22.3505   72.8674   -7.5760 O.2     1  UNL1       -0.5170
     28 O          23.4466   75.0460   -6.6172 O.3     1  UNL1       -0.2858
     29 O          22.2453   76.2709   -8.2522 O.3     1  UNL1       -0.3258
     30 O          25.3979   78.8720   -7.6633 O.3     1  UNL1       -0.3794
     31 O          22.7966   79.5443   -6.6489 O.3     1  UNL1       -0.3794
     32 O          25.8637   76.0149   -7.6629 O.3     1  UNL1       -0.3775
     33 C          24.4187   77.9032   -7.2785 C.3     1  UNL1        0.1715
     34 C          23.0323   78.4815   -7.5683 C.3     1  UNL1        0.1694
     35 C          24.6442   76.6210   -8.0775 C.3     1  UNL1        0.1967
     36 C          21.9447   77.4072   -7.4335 C.3     1  UNL1        0.1761
     37 C          23.4818   75.6405   -7.9120 C.3     1  UNL1        0.2704
     38 H          25.2606   79.6884   -7.1592 H       1  UNL1        0.2105
     39 H          23.4905   80.2155   -6.7440 H       1  UNL1        0.2105
     40 H          26.5918   76.6455   -7.7728 H       1  UNL1        0.2106
     41 O          19.8769   76.8633   -8.5000 O.3     1  UNL1       -0.3794
     42 C          20.5750   77.9220   -7.8707 C.3     1  UNL1        0.1693
     43 H          19.0031   77.1763   -8.7832 H       1  UNL1        0.2105
@<TRIPOS>UNITY_ATOM_ATTR
2 1
charge -1
26 1
charge -1
@<TRIPOS>BOND
     1    25    28    1
     2    25    24    1
     3    25    26    1
     4    25    27    2
     5     1     4    1
     6     1    24    1
     7     1     2    1
     8     1     3    2
     9     6    11    1
    10     6    12    1
    11    29    36    1
    12    29    37    1
    13     7     9    1
    14     7    13    1
    15     8    10    1
    16     8    14    1
    17    28    37    1
    18     4     5    1
    19    30    33    1
    20    30    38    1
    21    31    34    1
    22    31    39    1
    23    32    35    1
    24    32    40    1
    25    41    42    1
    26    41    43    1
    27    15    19    2
    28    16    22    2
    29    17    12    1
    30    17    19   ar
    31    17    20   ar
    32    18    19   ar
    33    18    22   ar
    34    18    23    1
    35     9    10    1
    36     9    11    1
    37    10    12    1
    38    11     5    1
    39    33    34    1
    40    33    35    1
    41    34    36    1
    42    35    37    1
    43    36    42    1
    44    20    21   ar
    45    21    22   ar
@<TRIPOS>MOLECULE
*****
 43 45 0 0 0
SMALL
GASTEIGER

@<TRIPOS>ATOM
      1 P          23.2121   72.6334   -3.8557 P.3     1  UNL1        0.2189
      2 O          23.7274   73.8592   -4.7773 O.co2   1  UNL1       -0.4371
      3 O          24.2646   71.6277   -3.4921 O.2     1  UNL1       -0.5170
      4 O          21.9339   72.0531   -4.6604 O.3     1  UNL1       -0.3112
      5 C          21.0964   71.1124   -4.0112 C.3     1  UNL1        0.1811
      6 O          19.1094   69.8235   -4.4164 O.3     1  UNL1       -0.3308
      7 O          19.5212   70.4491   -7.3199 O.3     1  UNL1       -0.3794
      8 O          17.5730   72.2169   -6.6014 O.3     1  UNL1       -0.3779
      9 C          19.7700   71.2658   -6.1769 C.3     1  UNL1        0.1713
     10 C          18.4653   71.7735   -5.5993 C.3     1  UNL1        0.1895
     11 C          20.2834   70.3657   -5.0599 C.3     1  UNL1        0.1764
     12 C          17.9515   70.5505   -4.8586 C.3     1  UNL1        0.2383
     13 H          19.1926   71.0019   -8.0468 H       1  UNL1        0.2105
     14 H          17.9445   72.9962   -7.0434 H       1  UNL1        0.2106
     15 O          15.8635   68.9531   -3.8260 O.2     1  UNL1       -0.2464
     16 O          14.9590   71.9814   -0.4715 O.2     1  UNL1       -0.2670
     17 N          17.1541   70.8971   -3.7161 N.ar    1  UNL1       -0.2551
     18 N          15.4150   70.4621   -2.1565 N.ar    1  UNL1       -0.2743
     19 C          16.1294   70.0256   -3.2794 C.ar    1  UNL1        0.3323
     20 C          17.3919   72.0895   -3.0411 C.ar    1  UNL1        0.0869
     21 C          16.7008   72.4919   -1.9726 C.ar    1  UNL1        0.0795
     22 C          15.6127   71.6392   -1.4520 C.ar    1  UNL1        0.2626
     23 H          14.6959   69.8713   -1.8345 H       1  UNL1        0.1734
     24 O          22.5364   73.3859   -2.5947 O.3     1  UNL1       -0.2703
     25 P          23.1339   74.4822   -1.5680 P.3     1  UNL1        0.2208
     26 O          22.1360   75.7427   -1.7490 O.co2   1  UNL1       -0.4371
     27 O          24.5840   74.8039   -1.7866 O.2     1  UNL1       -0.5170
     28 O          22.7918   73.8986   -0.1026 O.3     1  UNL1       -0.2858
     29 O          23.5553   71.7599    0.5755 O.3     1  UNL1       -0.3258
     30 O          20.3433   72.1575    3.1399 O.3     1  UNL1       -0.3794
     31 O          23.0155   72.3677    4.1711 O.3     1  UNL1       -0.3794
     32 O          20.1458   73.1222    0.4177 O.3     1  UNL1       -0.3775
     33 C          21.4602   72.6113    2.3704 C.3     1  UNL1        0.1715
     34 C          22.7114   71.8835    2.8660 C.3     1  UNL1        0.1694
     35 C          21.2081   72.3038    0.8955 C.3     1  UNL1        0.1967
     36 C          23.8978   72.1147    1.9204 C.3     1  UNL1        0.1761
     37 C          22.4650   72.5198    0.0506 C.3     1  UNL1        0.2704
     38 H          20.4968   72.3502    4.0773 H       1  UNL1        0.2105
     39 H          22.2581   72.2161    4.7581 H       1  UNL1        0.2105
     40 H          19.3560   72.9760    0.9605 H       1  UNL1        0.2106
     41 O          25.4732   70.4687    1.2011 O.3     1  UNL1       -0.3794
     42 C          25.1112   71.2727    2.3087 C.3     1  UNL1        0.1693
     43 H          26.2444   69.9274    1.4335 H       1  UNL1        0.2105
@<TRIPOS>UNITY_ATOM_ATTR
2 1
charge -1
26 1
charge -1
@<TRIPOS>BOND
     1    25    28    1
     2    25    24    1
     3    25    26    1
     4    25    27    2
     5     1     4    1
     6     1    24    1
     7     1     2    1
     8     1     3    2
     9     6    11    1
    10     6    12    1
    11    29    36    1
    12    29    37    1
    13     7     9    1
    14     7    13    1
    15     8    10    1
    16     8    14    1
    17    28    37    1
    18     4     5    1
    19    30    33    1
    20    30    38    1
    21    31    34    1
    22    31    39    1
    23    32    35    1
    24    32    40    1
    25    41    42    1
    26    41    43    1
    27    15    19    2
    28    16    22    2
    29    17    12    1
    30    17    19   ar
    31    17    20   ar
    32    18    19   ar
    33    18    22   ar
    34    18    23    1
    35     9    10    1
    36     9    11    1
    37    10    12    1
    38    11     5    1
    39    33    34    1
    40    33    35    1
    41    34    36    1
    42    35    37    1
    43    36    42    1
    44    20    21   ar
    45    21    22   ar
@<TRIPOS>MOLECULE
*****
 43 45 0 0 0
SMALL
GASTEIGER

@<TRIPOS>ATOM
      1 P          21.4597   71.7182   -2.3671 P.3     1  UNL1        0.2189
      2 O          22.6751   71.2119   -1.4270 O.co2   1  UNL1       -0.4371
      3 O          20.8632   73.0382   -1.9758 O.2     1  UNL1       -0.5170
      4 O          20.4375   70.4642   -2.3893 O.3     1  UNL1       -0.3112
      5 C          19.8063   70.1280   -3.6126 C.3     1  UNL1        0.1811
      6 O          18.1129   71.3702   -4.7802 O.3     1  UNL1       -0.3308
      7 O          16.1343   69.9754   -3.0109 O.3     1  UNL1       -0.3794
      8 O          15.9420   68.5710   -5.3406 O.3     1  UNL1       -0.3779
      9 C          17.3466   69.4787   -3.5758 C.3     1  UNL1        0.1713
     10 C          17.1673   69.2147   -5.0562 C.3     1  UNL1        0.1895
     11 C          18.3636   70.6132   -3.5758 C.3     1  UNL1        0.1764
     12 C          17.2400   70.6165   -5.6373 C.3     1  UNL1        0.2383
     13 H          15.4695   69.2684   -2.9999 H       1  UNL1        0.2105
     14 H          15.9447   67.6831   -4.9500 H       1  UNL1        0.2106
     15 O          15.6787   70.3748   -7.9787 O.2     1  UNL1       -0.2464
     16 O          19.3849   70.6784  -10.7014 O.2     1  UNL1       -0.2670
     17 N          17.7709   70.6296   -6.9713 N.ar    1  UNL1       -0.2551
     18 N          17.5254   70.5264   -9.3325 N.ar    1  UNL1       -0.2743
     19 C          16.9010   70.5003   -8.0789 C.ar    1  UNL1        0.3323
     20 C          19.1400   70.7698   -7.1708 C.ar    1  UNL1        0.0869
     21 C          19.7198   70.7914   -8.3727 C.ar    1  UNL1        0.0795
     22 C          18.8818   70.6622   -9.5823 C.ar    1  UNL1        0.2626
     23 H          16.9392   70.4376  -10.1188 H       1  UNL1        0.1734
     24 O          22.1074   71.6851   -3.8478 O.3     1  UNL1       -0.2703
     25 P          22.4069   72.8732   -4.9022 P.3     1  UNL1        0.2208
     26 O          20.9651   73.5859   -5.0775 O.co2   1  UNL1       -0.4371
     27 O          23.0303   72.4123   -6.1878 O.2     1  UNL1       -0.5170
     28 O          23.2912   73.9403   -4.0749 O.3     1  UNL1       -0.2858
     29 O          23.8665   75.3037   -5.9260 O.3     1  UNL1       -0.3258
     30 O          19.9979   76.6138   -5.3186 O.3     1  UNL1       -0.3794
     31 O          20.5946   74.9591   -7.5889 O.3     1  UNL1       -0.3794
     32 O          21.6887   76.0033   -3.0497 O.3     1  UNL1       -0.3775
     33 C          21.0596   75.6560   -5.3486 C.3     1  UNL1        0.1715
     34 C          21.5928   75.5758   -6.7804 C.3     1  UNL1        0.1694
     35 C          22.1613   76.1018   -4.3889 C.3     1  UNL1        0.1967
     36 C          22.8998   74.7738   -6.8407 C.3     1  UNL1        0.1761
     37 C          23.4337   75.2711   -4.5646 C.3     1  UNL1        0.2704
     38 H          19.2949   76.3363   -5.9255 H       1  UNL1        0.2105
     39 H          19.7743   75.4750   -7.5416 H       1  UNL1        0.2105
     40 H          20.8832   76.5337   -2.9513 H       1  UNL1        0.2106
     41 O          23.5651   73.4962   -8.7470 O.3     1  UNL1       -0.3794
     42 C          23.5318   74.8139   -8.2303 C.3     1  UNL1        0.1693
     43 H          23.9646   73.5063   -9.6313 H       1  UNL1        0.2105
@<TRIPOS>UNITY_ATOM_ATTR
2 1
charge -1
26 1
charge -1
@<TRIPOS>BOND
     1    25    28    1
     2    25    24    1
     3    25    26    1
     4    25    27    2
     5     1     4    1
     6     1    24    1
     7     1     2    1
     8     1     3    2
     9     6    11    1
    10     6    12    1
    11    29    36    1
    12    29    37    1
    13     7     9    1
    14     7    13    1
    15     8    10    1
    16     8    14    1
    17    28    37    1
    18     4     5    1
    19    30    33    1
    20    30    38    1
    21    31    34    1
    22    31    39    1
    23    32    35    1
    24    32    40    1
    25    41    42    1
    26    41    43    1
    27    15    19    2
    28    16    22    2
    29    17    12    1
    30    17    19   ar
    31    17    20   ar
    32    18    19   ar
    33    18    22   ar
    34    18    23    1
    35     9    10    1
    36     9    11    1
    37    10    12    1
    38    11     5    1
    39    33    34    1
    40    33    35    1
    41    34    36    1
    42    35    37    1
    43    36    42    1
    44    20    21   ar
    45    21    22   ar
@<TRIPOS>MOLECULE
*****
 43 45 0 0 0
SMALL
GASTEIGER

@<TRIPOS>ATOM
      1 P          23.1259   73.9836   -3.9207 P.3     1  UNL1        0.2189
      2 O          24.2160   72.7985   -4.0774 O.co2   1  UNL1       -0.4371
      3 O          23.4628   75.2543   -4.6440 O.2     1  UNL1       -0.5170
      4 O          22.9255   74.1178   -2.3208 O.3     1  UNL1       -0.3112
      5 C          22.0167   75.0892   -1.8323 C.3     1  UNL1        0.1811
      6 O          21.1956   73.0538   -0.8541 O.3     1  UNL1       -0.3308
      7 O          18.8760   74.6812    0.1267 O.3     1  UNL1       -0.3794
      8 O          20.4423   74.4785    2.3499 O.3     1  UNL1       -0.3779
      9 C          20.2472   75.0525   -0.0046 C.3     1  UNL1        0.1713
     10 C          21.0738   74.4068    1.0878 C.3     1  UNL1        0.1895
     11 C          20.7969   74.3822   -1.2576 C.3     1  UNL1        0.1764
     12 C          21.2072   72.9809    0.5809 C.3     1  UNL1        0.2383
     13 H          18.5030   75.0976    0.9201 H       1  UNL1        0.2105
     14 H          20.3811   75.4054    2.6289 H       1  UNL1        0.2106
     15 O          21.5416   70.2007    0.9510 O.2     1  UNL1       -0.2464
     16 O          25.9433   70.7135    2.2172 O.2     1  UNL1       -0.2670
     17 N          22.4301   72.3605    1.0064 N.ar    1  UNL1       -0.2551
     18 N          23.7331   70.4583    1.5810 N.ar    1  UNL1       -0.2743
     19 C          22.4925   70.9562    1.1626 C.ar    1  UNL1        0.3323
     20 C          23.5509   73.1425    1.2637 C.ar    1  UNL1        0.0869
     21 C          24.7262   72.6524    1.6633 C.ar    1  UNL1        0.0795
     22 C          24.8757   71.1948    1.8507 C.ar    1  UNL1        0.2626
     23 H          23.8001   69.4827    1.6970 H       1  UNL1        0.1734
     24 O          21.7523   73.2798   -4.4011 O.3     1  UNL1       -0.2703
     25 P          21.4909   71.9108   -5.2199 P.3     1  UNL1        0.2208
     26 O          21.7289   70.7614   -4.1066 O.co2   1  UNL1       -0.4371
     27 O          22.3329   71.7615   -6.4539 O.2     1  UNL1       -0.5170
     28 O          19.8997   71.8937   -5.4898 O.3     1  UNL1       -0.2858
     29 O          18.3375   70.1301   -5.2332 O.3     1  UNL1       -0.3258
     30 O          16.7340   71.9511   -8.5744 O.3     1  UNL1       -0.3794
     31 O          15.3992   72.2032   -6.0441 O.3     1  UNL1       -0.3794
     32 O          19.6065   71.7518   -8.2771 O.3     1  UNL1       -0.3775
     33 C          17.4048   71.9031   -7.3122 C.3     1  UNL1        0.1715
     34 C          16.4554   71.2784   -6.2880 C.3     1  UNL1        0.1694
     35 C          18.6728   71.0629   -7.4524 C.3     1  UNL1        0.1967
     36 C          17.1894   70.9487   -4.9812 C.3     1  UNL1        0.1761
     37 C          19.2969   70.7508   -6.0912 C.3     1  UNL1        0.2704
     38 H          15.9282   72.4835   -8.4924 H       1  UNL1        0.2105
     39 H          14.9442   72.4034   -6.8772 H       1  UNL1        0.2105
     40 H          19.1996   71.9433   -9.1359 H       1  UNL1        0.2106
     41 O          15.9246   68.9568   -4.6048 O.3     1  UNL1       -0.3794
     42 C          16.3008   70.1822   -4.0039 C.3     1  UNL1        0.1693
     43 H          15.3590   68.4581   -3.9940 H       1  UNL1        0.2105
@<TRIPOS>UNITY_ATOM_ATTR
2 1
charge -1
26 1
charge -1
@<TRIPOS>BOND
     1    25    28    1
     2    25    24    1
     3    25    26    1
     4    25    27    2
     5     1     4    1
     6     1    24    1
     7     1     2    1
     8     1     3    2
     9     6    11    1
    10     6    12    1
    11    29    36    1
    12    29    37    1
    13     7     9    1
    14     7    13    1
    15     8    10    1
    16     8    14    1
    17    28    37    1
    18     4     5    1
    19    30    33    1
    20    30    38    1
    21    31    34    1
    22    31    39    1
    23    32    35    1
    24    32    40    1
    25    41    42    1
    26    41    43    1
    27    15    19    2
    28    16    22    2
    29    17    12    1
    30    17    19   ar
    31    17    20   ar
    32    18    19   ar
    33    18    22   ar
    34    18    23    1
    35     9    10    1
    36     9    11    1
    37    10    12    1
    38    11     5    1
    39    33    34    1
    40    33    35    1
    41    34    36    1
    42    35    37    1
    43    36    42    1
    44    20    21   ar
    45    21    22   ar
@<TRIPOS>MOLECULE
*****
 43 45 0 0 0
SMALL
GASTEIGER

@<TRIPOS>ATOM
      1 P          23.5220   72.3853   -3.3928 P.3     1  UNL1        0.2189
      2 O          24.0657   70.8793   -3.1609 O.co2   1  UNL1       -0.4371
      3 O          24.5700   73.3834   -3.7890 O.2     1  UNL1       -0.5170
      4 O          22.7119   72.7196   -2.0327 O.3     1  UNL1       -0.3112
      5 C          23.4380   72.8172   -0.8199 C.3     1  UNL1        0.1811
      6 O          24.5125   71.2907    0.6932 O.3     1  UNL1       -0.3308
      7 O          21.7740   70.1994    1.2409 O.3     1  UNL1       -0.3794
      8 O          22.2184   71.8019    3.4021 O.3     1  UNL1       -0.3779
      9 C          22.1745   71.5445    0.9848 C.3     1  UNL1        0.1713
     10 C          22.8785   72.1228    2.1946 C.3     1  UNL1        0.1895
     11 C          23.2933   71.5122   -0.0490 C.3     1  UNL1        0.1764
     12 C          24.2540   71.4857    2.0932 C.3     1  UNL1        0.2383
     13 H          21.0599   70.1944    1.8981 H       1  UNL1        0.2105
     14 H          21.3484   72.2305    3.4189 H       1  UNL1        0.2106
     15 O          26.9466   70.6930    2.4086 O.2     1  UNL1       -0.2464
     16 O          28.1224   74.7608    4.2284 O.2     1  UNL1       -0.2670
     17 N          25.2851   72.3178    2.6463 N.ar    1  UNL1       -0.2551
     18 N          27.5299   72.7192    3.3143 N.ar    1  UNL1       -0.2743
     19 C          26.6053   71.8236    2.7619 C.ar    1  UNL1        0.3323
     20 C          24.9829   73.6084    3.0668 C.ar    1  UNL1        0.0869
     21 C          25.8759   74.4494    3.5927 C.ar    1  UNL1        0.0795
     22 C          27.2779   74.0110    3.7483 C.ar    1  UNL1        0.2626
     23 H          28.4559   72.3965    3.4049 H       1  UNL1        0.1734
     24 O          22.3415   72.1825   -4.4783 O.3     1  UNL1       -0.2703
     25 P          21.9294   73.0564   -5.7742 P.3     1  UNL1        0.2208
     26 O          23.0021   72.5909   -6.8922 O.co2   1  UNL1       -0.4371
     27 O          21.8917   74.5374   -5.5309 O.2     1  UNL1       -0.5170
     28 O          20.5282   72.4233   -6.2650 O.3     1  UNL1       -0.2858
     29 O          19.5556   70.2780   -6.0042 O.3     1  UNL1       -0.3258
     30 O          18.4829   71.0167   -9.9226 O.3     1  UNL1       -0.3794
     31 O          16.4825   71.1066   -7.8639 O.3     1  UNL1       -0.3794
     32 O          21.0814   71.8486   -8.9555 O.3     1  UNL1       -0.3775
     33 C          18.7570   71.3562   -8.5606 C.3     1  UNL1        0.1715
     34 C          17.7902   70.5756   -7.6680 C.3     1  UNL1        0.1694
     35 C          20.2038   70.9891   -8.2362 C.3     1  UNL1        0.1967
     36 C          18.1934   70.6796   -6.1909 C.3     1  UNL1        0.1761
     37 C          20.4863   71.0786   -6.7354 C.3     1  UNL1        0.2704
     38 H          17.5659   71.2477  -10.1353 H       1  UNL1        0.2105
     39 H          16.2403   71.0354   -8.8006 H       1  UNL1        0.2105
     40 H          20.8927   71.7826   -9.9042 H       1  UNL1        0.2106
     41 O          16.0637   70.3811   -5.1497 O.3     1  UNL1       -0.3794
     42 C          17.3375   69.7819   -5.2999 C.3     1  UNL1        0.1693
     43 H          15.5080   69.8206   -4.5851 H       1  UNL1        0.2105
@<TRIPOS>UNITY_ATOM_ATTR
2 1
charge -1
26 1
charge -1
@<TRIPOS>BOND
     1    25    28    1
     2    25    24    1
     3    25    26    1
     4    25    27    2
     5     1     4    1
     6     1    24    1
     7     1     2    1
     8     1     3    2
     9     6    11    1
    10     6    12    1
    11    29    36    1
    12    29    37    1
    13     7     9    1
    14     7    13    1
    15     8    10    1
    16     8    14    1
    17    28    37    1
    18     4     5    1
    19    30    33    1
    20    30    38    1
    21    31    34    1
    22    31    39    1
    23    32    35    1
    24    32    40    1
    25    41    42    1
    26    41    43    1
    27    15    19    2
    28    16    22    2
    29    17    12    1
    30    17    19   ar
    31    17    20   ar
    32    18    19   ar
    33    18    22   ar
    34    18    23    1
    35     9    10    1
    36     9    11    1
    37    10    12    1
    38    11     5    1
    39    33    34    1
    40    33    35    1
    41    34    36    1
    42    35    37    1
    43    36    42    1
    44    20    21   ar
    45    21    22   ar
