@<TRIPOS>MOLECULE
UD1
 46 48 0 0 0
SMALL
GASTEIGER

@<TRIPOS>ATOM
      1 P          21.0954   71.6857   -2.3680 P.3     1  UNL1        0.2189
      2 O          21.6689   73.0414   -2.5160 O.2     1  UNL1       -0.5170
      3 O          22.2291   70.5862   -2.6814 O.3     1  UNL1       -0.4371
      4 O          19.8736   71.5048   -3.4012 O.3     1  UNL1       -0.3112
      5 C          18.7320   71.1273   -2.6301 C.3     1  UNL1        0.1811
      6 C          17.0722   70.6319   -5.7808 C.3     1  UNL1        0.2383
      7 C          17.0855   69.2288   -5.1242 C.3     1  UNL1        0.1895
      8 O          15.9463   68.4663   -5.5246 O.3     1  UNL1       -0.3779
      9 C          17.0166   69.5752   -3.6141 C.3     1  UNL1        0.1713
     10 C          17.5076   71.0340   -3.5419 C.3     1  UNL1        0.1764
     11 O          17.8604   71.4351   -4.8768 O.3     1  UNL1       -0.3308
     12 O          15.6735   69.4684   -3.1370 O.3     1  UNL1       -0.3794
     13 H          16.0146   67.6081   -5.0838 H       1  UNL1        0.2106
     14 H          15.4044   68.5488   -3.2638 H       1  UNL1        0.2105
     15 N          17.6898   70.5908   -7.1068 N.ar    1  UNL1       -0.2551
     16 C          16.9138   70.4975   -8.2006 C.ar    1  UNL1        0.3323
     17 N          17.4544   70.4616   -9.4330 N.ar    1  UNL1       -0.2743
     18 C          18.7927   70.5099   -9.5896 C.ar    1  UNL1        0.2626
     19 C          19.6217   70.6021   -8.4463 C.ar    1  UNL1        0.0795
     20 C          19.0528   70.6417   -7.2223 C.ar    1  UNL1        0.0869
     21 O          15.7051   70.4531   -8.0757 O.2     1  UNL1       -0.2464
     22 O          19.2827   70.4727  -10.7031 O.2     1  UNL1       -0.2670
     23 H          16.8793   70.3990  -10.2112 H       1  UNL1        0.1734
     24 O          20.5590   71.4911   -0.8636 O.3     1  UNL1       -0.2703
     25 P          21.8545   71.2889    0.0693 P.3     1  UNL1        0.2208
     26 O          22.9922   70.8325   -0.7590 O.2     1  UNL1       -0.5170
     27 O          21.5368   70.1858    1.1981 O.3     1  UNL1       -0.4371
     28 O          22.2314   72.6849    0.7762 O.3     1  UNL1       -0.2865
     29 C          22.1297   72.4763    2.1860 C.3     1  UNL1        0.2611
     30 C          22.1595   73.8287    2.9001 C.3     1  UNL1        0.1582
     31 C          23.4665   74.5503    2.5527 C.3     1  UNL1        0.1625
     32 C          24.6405   73.6186    2.8717 C.3     1  UNL1        0.1686
     33 C          24.4250   72.2828    2.1571 C.3     1  UNL1        0.1760
     34 O          23.5746   75.7452    3.3286 O.3     1  UNL1       -0.3801
     35 O          25.8587   74.2129    2.4198 O.3     1  UNL1       -0.3794
     36 O          23.2229   71.6735    2.6263 O.3     1  UNL1       -0.3263
     37 H          24.4086   76.1661    3.0786 H       1  UNL1        0.2105
     38 H          26.5699   73.5944    2.6393 H       1  UNL1        0.2105
     39 C          19.8248   74.5037    3.0676 C.2     1  UNL1        0.2231
     40 C          18.6527   75.3375    2.6167 C.3     1  UNL1        0.0946
     41 N          21.0207   74.6388    2.4627 N.am    1  UNL1       -0.2994
     42 O          19.6912   73.7104    3.9748 O.2     1  UNL1       -0.2751
     43 H          21.1278   75.2734    1.7365 H       1  UNL1        0.1496
     44 C          25.6085   71.3561    2.4431 C.3     1  UNL1        0.1693
     45 O          25.1253   70.0472    2.7519 O.3     1  UNL1       -0.3794
     46 H          25.9007   69.4964    2.9253 H       1  UNL1        0.2105
@<TRIPOS>BOND
     1    29    30    1
     2    29    28    1
     3    29    36    1
     4    30    31    1
     5    30    41    1
     6    31    32    1
     7    31    34    1
     8    32    33    1
     9    32    35    1
    10    33    44    1
    11    33    36    1
    12    44    45    1
    13    39    40    1
    14    39    41   am
    15    39    42    2
    16    41    43    1
    17    28    25    1
    18    34    37    1
    19    35    38    1
    20    45    46    1
    21    15    16   ar
    22    15    20   ar
    23    15     6    1
    24    16    17   ar
    25    16    21    2
    26    17    18   ar
    27    17    23    1
    28    18    19   ar
    29    18    22    2
    30    19    20   ar
    31     6     7    1
    32     6    11    1
    33     7     8    1
    34     7     9    1
    35     8    13    1
    36     9    10    1
    37     9    12    1
    38    10    11    1
    39    10     5    1
    40    12    14    1
    41     5     4    1
    42     4     1    1
    43     1     2    2
    44     1     3    1
    45     1    24    1
    46    24    25    1
    47    25    26    2
    48    25    27    1
@<TRIPOS>MOLECULE
UD1
 46 48 0 0 0
SMALL
GASTEIGER

@<TRIPOS>ATOM
      1 P          20.5363   71.0458   -2.0045 P.3     1  UNL1        0.2189
      2 O          20.9843   70.7636   -0.6231 O.2     1  UNL1       -0.5170
      3 O          20.4539   72.6384   -2.2272 O.3     1  UNL1       -0.4371
      4 O          19.0818   70.3961   -2.2397 O.3     1  UNL1       -0.3112
      5 C          18.1642   71.4800   -2.3931 C.3     1  UNL1        0.1811
      6 C          16.8665   70.5151   -5.6043 C.3     1  UNL1        0.2383
      7 C          17.1608   69.1745   -4.8858 C.3     1  UNL1        0.1895
      8 O          16.2556   68.1560   -5.3132 O.3     1  UNL1       -0.3779
      9 C          16.9183   69.5419   -3.3988 C.3     1  UNL1        0.1713
     10 C          17.0546   71.0764   -3.3653 C.3     1  UNL1        0.1764
     11 O          17.3896   71.5071   -4.6955 O.3     1  UNL1       -0.3308
     12 O          15.6084   69.1405   -2.9914 O.3     1  UNL1       -0.3794
     13 H          16.4916   67.3513   -4.8314 H       1  UNL1        0.2106
     14 H          15.5670   68.1801   -3.0913 H       1  UNL1        0.2105
     15 N          17.5599   70.5777   -6.8915 N.ar    1  UNL1       -0.2551
     16 C          16.8543   70.4967   -8.0330 C.ar    1  UNL1        0.3323
     17 N          17.4653   70.5554   -9.2311 N.ar    1  UNL1       -0.2743
     18 C          18.8050   70.6880   -9.3049 C.ar    1  UNL1        0.2626
     19 C          19.5606   70.7685   -8.1110 C.ar    1  UNL1        0.0795
     20 C          18.9217   70.7123   -6.9227 C.ar    1  UNL1        0.0869
     21 O          15.6453   70.3770   -7.9828 O.2     1  UNL1       -0.2464
     22 O          19.3589   70.7364  -10.3876 O.2     1  UNL1       -0.2670
     23 H          16.9402   70.5002  -10.0444 H       1  UNL1        0.1734
     24 O          21.5828   70.4104   -3.0485 O.3     1  UNL1       -0.2703
     25 P          22.7288   71.5143   -3.2880 P.3     1  UNL1        0.2208
     26 O          22.6629   71.9987   -4.6843 O.2     1  UNL1       -0.5170
     27 O          24.1733   70.8570   -3.0164 O.3     1  UNL1       -0.4371
     28 O          22.5050   72.7494   -2.2805 O.3     1  UNL1       -0.2865
     29 C          23.8004   73.1834   -1.8626 C.3     1  UNL1        0.2611
     30 C          23.6982   73.8111   -0.4713 C.3     1  UNL1        0.1582
     31 C          22.7230   74.9924   -0.5248 C.3     1  UNL1        0.1625
     32 C          23.1682   75.9455   -1.6390 C.3     1  UNL1        0.1686
     33 C          23.3074   75.1572   -2.9431 C.3     1  UNL1        0.1760
     34 O          22.7323   75.6782    0.7286 O.3     1  UNL1       -0.3801
     35 O          22.1929   76.9766   -1.8040 O.3     1  UNL1       -0.3794
     36 O          24.3006   74.1439   -2.7902 O.3     1  UNL1       -0.3263
     37 H          22.1065   76.4114    0.6506 H       1  UNL1        0.2105
     38 H          22.5116   77.5521   -2.5137 H       1  UNL1        0.2105
     39 C          23.9297   72.5177    1.5800 C.2     1  UNL1        0.2231
     40 C          23.4250   71.4899    2.5604 C.3     1  UNL1        0.0946
     41 N          23.2081   72.8130    0.4816 N.am    1  UNL1       -0.2994
     42 O          24.9860   73.0785    1.7796 O.2     1  UNL1       -0.2751
     43 H          22.3629   72.3642    0.3216 H       1  UNL1        0.1496
     44 C          23.7204   76.1064   -4.0698 C.3     1  UNL1        0.1693
     45 O          24.1111   75.3459   -5.2148 O.3     1  UNL1       -0.3794
     46 H          24.3633   75.9802   -5.8993 H       1  UNL1        0.2105
@<TRIPOS>BOND
     1    29    30    1
     2    29    28    1
     3    29    36    1
     4    30    31    1
     5    30    41    1
     6    31    32    1
     7    31    34    1
     8    32    33    1
     9    32    35    1
    10    33    44    1
    11    33    36    1
    12    44    45    1
    13    39    40    1
    14    39    41   am
    15    39    42    2
    16    41    43    1
    17    28    25    1
    18    34    37    1
    19    35    38    1
    20    45    46    1
    21    15    16   ar
    22    15    20   ar
    23    15     6    1
    24    16    17   ar
    25    16    21    2
    26    17    18   ar
    27    17    23    1
    28    18    19   ar
    29    18    22    2
    30    19    20   ar
    31     6     7    1
    32     6    11    1
    33     7     8    1
    34     7     9    1
    35     8    13    1
    36     9    10    1
    37     9    12    1
    38    10    11    1
    39    10     5    1
    40    12    14    1
    41     5     4    1
    42     4     1    1
    43     1     2    2
    44     1     3    1
    45     1    24    1
    46    24    25    1
    47    25    26    2
    48    25    27    1
@<TRIPOS>MOLECULE
UD1
 46 48 0 0 0
SMALL
GASTEIGER

@<TRIPOS>ATOM
      1 P          21.6867   71.0957    0.1154 P.3     1  UNL1        0.2189
      2 O          21.7836   70.1463    1.2459 O.2     1  UNL1       -0.5170
      3 O          23.0701   71.0921   -0.7085 O.3     1  UNL1       -0.4371
      4 O          21.4043   72.5764    0.6815 O.3     1  UNL1       -0.3112
      5 C          21.6187   72.5277    2.0929 C.3     1  UNL1        0.1811
      6 C          24.9064   73.8077    2.7854 C.3     1  UNL1        0.2383
      7 C          24.6699   74.1343    1.2896 C.3     1  UNL1        0.1895
      8 O          25.3590   75.3265    0.9115 O.3     1  UNL1       -0.3779
      9 C          23.1340   74.3437    1.2409 C.3     1  UNL1        0.1713
     10 C          22.6168   73.6144    2.4959 C.3     1  UNL1        0.1764
     11 O          23.7527   73.0184    3.1452 O.3     1  UNL1       -0.3308
     12 O          22.8169   75.7362    1.2973 O.3     1  UNL1       -0.3794
     13 H          25.1720   75.4728   -0.0261 H       1  UNL1        0.2106
     14 H          23.2174   76.1456    0.5188 H       1  UNL1        0.2105
     15 N          26.1361   73.0339    2.9600 N.ar    1  UNL1       -0.2551
     16 C          26.2098   71.7818    2.4760 C.ar    1  UNL1        0.3323
     17 N          27.3296   71.0484    2.6185 N.ar    1  UNL1       -0.2743
     18 C          28.3989   71.5588    3.2619 C.ar    1  UNL1        0.2626
     19 C          28.3329   72.8735    3.7816 C.ar    1  UNL1        0.0795
     20 C          27.1992   73.5891    3.6198 C.ar    1  UNL1        0.0869
     21 O          25.2537   71.3075    1.8933 O.2     1  UNL1       -0.2464
     22 O          29.4102   70.8949    3.3955 O.2     1  UNL1       -0.2670
     23 H          27.3669   70.1487    2.2589 H       1  UNL1        0.1734
     24 O          20.4819   70.6536   -0.8551 O.3     1  UNL1       -0.2703
     25 P          20.6834   71.4499   -2.2387 P.3     1  UNL1        0.2208
     26 O          21.6564   70.7268   -3.0868 O.2     1  UNL1       -0.5170
     27 O          21.2368   72.9302   -1.9311 O.3     1  UNL1       -0.4371
     28 O          19.2741   71.5548   -3.0091 O.3     1  UNL1       -0.2865
     29 C          19.1289   70.3560   -3.7727 C.3     1  UNL1        0.2611
     30 C          18.7742   70.7166   -5.2163 C.3     1  UNL1        0.1582
     31 C          17.4720   71.5251   -5.2256 C.3     1  UNL1        0.1625
     32 C          16.3992   70.7351   -4.4684 C.3     1  UNL1        0.1686
     33 C          16.9321   70.3757   -3.0798 C.3     1  UNL1        0.1760
     34 O          17.0511   71.7395   -6.5740 O.3     1  UNL1       -0.3801
     35 O          15.2211   71.5329   -4.3381 O.3     1  UNL1       -0.3794
     36 O          18.0933   69.5559   -3.2063 O.3     1  UNL1       -0.3263
     37 H          16.2311   72.2506   -6.5328 H       1  UNL1        0.2105
     38 H          14.5736   70.9990   -3.8561 H       1  UNL1        0.2105
     39 C          20.2300   71.3107   -7.0770 C.2     1  UNL1        0.2231
     40 C          21.3405   72.1342   -7.6777 C.3     1  UNL1        0.0946
     41 N          19.8526   71.5167   -5.8005 N.am    1  UNL1       -0.2994
     42 O          19.6765   70.4617   -7.7427 O.2     1  UNL1       -0.2751
     43 H          20.2955   72.1959   -5.2675 H       1  UNL1        0.1496
     44 C          15.8558   69.6144   -2.3033 C.3     1  UNL1        0.1693
     45 O          16.4411   68.4750   -1.6698 O.3     1  UNL1       -0.3794
     46 H          15.7310   68.0244   -1.1929 H       1  UNL1        0.2105
@<TRIPOS>BOND
     1    29    30    1
     2    29    28    1
     3    29    36    1
     4    30    31    1
     5    30    41    1
     6    31    32    1
     7    31    34    1
     8    32    33    1
     9    32    35    1
    10    33    44    1
    11    33    36    1
    12    44    45    1
    13    39    40    1
    14    39    41   am
    15    39    42    2
    16    41    43    1
    17    28    25    1
    18    34    37    1
    19    35    38    1
    20    45    46    1
    21    15    16   ar
    22    15    20   ar
    23    15     6    1
    24    16    17   ar
    25    16    21    2
    26    17    18   ar
    27    17    23    1
    28    18    19   ar
    29    18    22    2
    30    19    20   ar
    31     6     7    1
    32     6    11    1
    33     7     8    1
    34     7     9    1
    35     8    13    1
    36     9    10    1
    37     9    12    1
    38    10    11    1
    39    10     5    1
    40    12    14    1
    41     5     4    1
    42     4     1    1
    43     1     2    2
    44     1     3    1
    45     1    24    1
    46    24    25    1
    47    25    26    2
    48    25    27    1
@<TRIPOS>MOLECULE
UD1
 46 48 0 0 0
SMALL
GASTEIGER

@<TRIPOS>ATOM
      1 P          16.3041   69.5811   -2.7854 P.3     1  UNL1        0.2189
      2 O          15.9609   69.0964   -4.1404 O.2     1  UNL1       -0.5170
      3 O          17.1020   68.4307   -1.9900 O.3     1  UNL1       -0.4371
      4 O          14.9533   69.9451   -1.9882 O.3     1  UNL1       -0.3112
      5 C          15.0412   69.3085   -0.7125 C.3     1  UNL1        0.1811
      6 C          12.6628   67.8332    1.5444 C.3     1  UNL1        0.2383
      7 C          12.3997   69.3566    1.6447 C.3     1  UNL1        0.1895
      8 O          11.0263   69.6202    1.9336 O.3     1  UNL1       -0.3779
      9 C          12.7692   69.8454    0.2200 C.3     1  UNL1        0.1713
     10 C          13.6766   68.7303   -0.3347 C.3     1  UNL1        0.1764
     11 O          13.8324   67.7472    0.7028 O.3     1  UNL1       -0.3308
     12 O          11.5938   69.9874   -0.5807 O.3     1  UNL1       -0.3794
     13 H          10.9299   70.5814    1.9832 H       1  UNL1        0.2106
     14 H          11.0416   70.6537   -0.1504 H       1  UNL1        0.2105
     15 N          12.9345   67.2649    2.8653 N.ar    1  UNL1       -0.2551
     16 C          12.8388   65.9370    3.0518 C.ar    1  UNL1        0.3323
     17 N          13.0868   65.3864    4.2550 N.ar    1  UNL1       -0.2743
     18 C          13.4285   66.1653    5.3012 C.ar    1  UNL1        0.2626
     19 C          13.5271   67.5654    5.1202 C.ar    1  UNL1        0.0795
     20 C          13.2781   68.0907    3.9015 C.ar    1  UNL1        0.0869
     21 O          12.5316   65.2213    2.1180 O.2     1  UNL1       -0.2464
     22 O          13.6483   65.6691    6.3906 O.2     1  UNL1       -0.2670
     23 H          13.0176   64.4262    4.3704 H       1  UNL1        0.1734
     24 O          17.2279   70.8932   -2.9027 O.3     1  UNL1       -0.2703
     25 P          18.7427   70.3808   -3.0813 P.3     1  UNL1        0.2208
     26 O          18.7367   68.9932   -3.5947 O.2     1  UNL1       -0.5170
     27 O          19.4953   70.4225   -1.6586 O.3     1  UNL1       -0.4371
     28 O          19.5141   71.3349   -4.1229 O.3     1  UNL1       -0.2865
     29 C          20.6370   70.5967   -4.6081 C.3     1  UNL1        0.2611
     30 C          21.8962   71.4573   -4.4905 C.3     1  UNL1        0.1582
     31 C          21.7022   72.7430   -5.3023 C.3     1  UNL1        0.1625
     32 C          21.3025   72.3641   -6.7323 C.3     1  UNL1        0.1686
     33 C          20.0860   71.4374   -6.6808 C.3     1  UNL1        0.1760
     34 O          22.9231   73.4847   -5.3235 O.3     1  UNL1       -0.3801
     35 O          20.9743   73.5456   -7.4658 O.3     1  UNL1       -0.3794
     36 O          20.4186   70.2441   -5.9724 O.3     1  UNL1       -0.3263
     37 H          22.7560   74.2832   -5.8429 H       1  UNL1        0.2105
     38 H          20.7284   73.2619   -8.3577 H       1  UNL1        0.2105
     39 C          23.2770   71.4269   -2.4839 C.2     1  UNL1        0.2231
     40 C          23.5162   71.7745   -1.0368 C.3     1  UNL1        0.0946
     41 N          22.1292   71.7951   -3.0849 N.am    1  UNL1       -0.2994
     42 O          24.1179   70.8150   -3.1074 O.2     1  UNL1       -0.2751
     43 H          21.4561   72.2846   -2.5860 H       1  UNL1        0.1496
     44 C          19.6587   71.0790   -8.1056 C.3     1  UNL1        0.1693
     45 O          18.4994   71.8356   -8.4603 O.3     1  UNL1       -0.3794
     46 H          18.2638   71.5802   -9.3624 H       1  UNL1        0.2105
@<TRIPOS>BOND
     1    29    30    1
     2    29    28    1
     3    29    36    1
     4    30    31    1
     5    30    41    1
     6    31    32    1
     7    31    34    1
     8    32    33    1
     9    32    35    1
    10    33    44    1
    11    33    36    1
    12    44    45    1
    13    39    40    1
    14    39    41   am
    15    39    42    2
    16    41    43    1
    17    28    25    1
    18    34    37    1
    19    35    38    1
    20    45    46    1
    21    15    16   ar
    22    15    20   ar
    23    15     6    1
    24    16    17   ar
    25    16    21    2
    26    17    18   ar
    27    17    23    1
    28    18    19   ar
    29    18    22    2
    30    19    20   ar
    31     6     7    1
    32     6    11    1
    33     7     8    1
    34     7     9    1
    35     8    13    1
    36     9    10    1
    37     9    12    1
    38    10    11    1
    39    10     5    1
    40    12    14    1
    41     5     4    1
    42     4     1    1
    43     1     2    2
    44     1     3    1
    45     1    24    1
    46    24    25    1
    47    25    26    2
    48    25    27    1
@<TRIPOS>MOLECULE
UD1
 46 48 0 0 0
SMALL
GASTEIGER

@<TRIPOS>ATOM
      1 P          20.9443   71.2607   -2.1845 P.3     1  UNL1        0.2189
      2 O          21.8889   70.3043   -2.8025 O.2     1  UNL1       -0.5170
      3 O          20.4691   70.6966   -0.7532 O.3     1  UNL1       -0.4371
      4 O          19.6620   71.4419   -3.1414 O.3     1  UNL1       -0.3112
      5 C          18.5504   70.8605   -2.4583 C.3     1  UNL1        0.1811
      6 C          16.9483   70.5292   -5.6600 C.3     1  UNL1        0.2383
      7 C          16.9540   69.0933   -5.0784 C.3     1  UNL1        0.1895
      8 O          15.8244   68.3508   -5.5388 O.3     1  UNL1       -0.3779
      9 C          16.8573   69.3592   -3.5536 C.3     1  UNL1        0.1713
     10 C          17.3427   70.8131   -3.3956 C.3     1  UNL1        0.1764
     11 O          17.7180   71.2850   -4.7009 O.3     1  UNL1       -0.3308
     12 O          15.5063   69.2246   -3.1069 O.3     1  UNL1       -0.3794
     13 H          15.8875   67.4706   -5.1429 H       1  UNL1        0.2106
     14 H          15.2423   68.3125   -3.2869 H       1  UNL1        0.2105
     15 N          17.5895   70.5595   -6.9751 N.ar    1  UNL1       -0.2551
     16 C          16.8364   70.4760   -8.0856 C.ar    1  UNL1        0.3323
     17 N          17.3988   70.5053   -9.3083 N.ar    1  UNL1       -0.2743
     18 C          18.7367   70.6103   -9.4385 C.ar    1  UNL1        0.2626
     19 C          19.5419   70.6930   -8.2776 C.ar    1  UNL1        0.0795
     20 C          18.9513   70.6667   -7.0636 C.ar    1  UNL1        0.0869
     21 O          15.6284   70.3809   -7.9846 O.2     1  UNL1       -0.2464
     22 O          19.2467   70.6320  -10.5434 O.2     1  UNL1       -0.2670
     23 H          16.8400   70.4487  -10.0987 H       1  UNL1        0.1734
     24 O          21.6718   72.6822   -1.9875 O.3     1  UNL1       -0.2703
     25 P          23.1299   72.3778   -1.3787 P.3     1  UNL1        0.2208
     26 O          23.9988   73.5607   -1.5648 O.2     1  UNL1       -0.5170
     27 O          23.7760   71.1135   -2.1379 O.3     1  UNL1       -0.4371
     28 O          22.9994   72.0497    0.1916 O.3     1  UNL1       -0.2865
     29 C          23.2771   73.2630    0.8930 C.3     1  UNL1        0.2611
     30 C          23.6558   72.9354    2.3384 C.3     1  UNL1        0.1582
     31 C          22.4982   72.1801    3.0010 C.3     1  UNL1        0.1625
     32 C          21.2164   73.0029    2.8333 C.3     1  UNL1        0.1686
     33 C          21.0201   73.3229    1.3499 C.3     1  UNL1        0.1760
     34 O          22.7771   71.9999    4.3907 O.3     1  UNL1       -0.3801
     35 O          20.0999   72.2516    3.3134 O.3     1  UNL1       -0.3794
     36 O          22.1205   74.0968    0.8739 O.3     1  UNL1       -0.3263
     37 H          22.0253   71.5218    4.7668 H       1  UNL1        0.2105
     38 H          19.3159   72.8049    3.1886 H       1  UNL1        0.2105
     39 C          26.0284   72.6089    2.7843 C.2     1  UNL1        0.2231
     40 C          27.2662   71.7487    2.7981 C.3     1  UNL1        0.0946
     41 N          24.8585   72.1000    2.3525 N.am    1  UNL1       -0.2994
     42 O          26.0857   73.7599    3.1615 O.2     1  UNL1       -0.2751
     43 H          24.8124   71.1790    2.0504 H       1  UNL1        0.1496
     44 C          19.7250   74.1170    1.1678 C.3     1  UNL1        0.1693
     45 O          19.3928   74.1753   -0.2209 O.3     1  UNL1       -0.3794
     46 H          18.5732   74.6831   -0.2914 H       1  UNL1        0.2105
@<TRIPOS>BOND
     1    29    30    1
     2    29    28    1
     3    29    36    1
     4    30    31    1
     5    30    41    1
     6    31    32    1
     7    31    34    1
     8    32    33    1
     9    32    35    1
    10    33    44    1
    11    33    36    1
    12    44    45    1
    13    39    40    1
    14    39    41   am
    15    39    42    2
    16    41    43    1
    17    28    25    1
    18    34    37    1
    19    35    38    1
    20    45    46    1
    21    15    16   ar
    22    15    20   ar
    23    15     6    1
    24    16    17   ar
    25    16    21    2
    26    17    18   ar
    27    17    23    1
    28    18    19   ar
    29    18    22    2
    30    19    20   ar
    31     6     7    1
    32     6    11    1
    33     7     8    1
    34     7     9    1
    35     8    13    1
    36     9    10    1
    37     9    12    1
    38    10    11    1
    39    10     5    1
    40    12    14    1
    41     5     4    1
    42     4     1    1
    43     1     2    2
    44     1     3    1
    45     1    24    1
    46    24    25    1
    47    25    26    2
    48    25    27    1
@<TRIPOS>MOLECULE
UD1
 46 48 0 0 0
SMALL
GASTEIGER

@<TRIPOS>ATOM
      1 P          20.8630   70.7188   -3.6258 P.3     1  UNL1        0.2189
      2 O          21.4609   71.3942   -4.7984 O.2     1  UNL1       -0.5170
      3 O          20.3069   69.2729   -4.0650 O.3     1  UNL1       -0.4371
      4 O          19.6484   71.6092   -3.0559 O.3     1  UNL1       -0.3112
      5 C          18.6631   70.6992   -2.5645 C.3     1  UNL1        0.1811
      6 C          16.9965   70.4913   -5.7436 C.3     1  UNL1        0.2383
      7 C          16.9376   69.0496   -5.1794 C.3     1  UNL1        0.1895
      8 O          15.7644   68.3718   -5.6304 O.3     1  UNL1       -0.3779
      9 C          16.8784   69.3006   -3.6502 C.3     1  UNL1        0.1713
     10 C          17.4401   70.7257   -3.4826 C.3     1  UNL1        0.1764
     11 O          17.8188   71.1944   -4.7881 O.3     1  UNL1       -0.3308
     12 O          15.5293   69.2296   -3.1834 O.3     1  UNL1       -0.3794
     13 H          15.7883   67.4845   -5.2461 H       1  UNL1        0.2106
     14 H          15.2160   68.3345   -3.3700 H       1  UNL1        0.2105
     15 N          17.6179   70.5055   -7.0685 N.ar    1  UNL1       -0.2551
     16 C          16.8443   70.4761   -8.1676 C.ar    1  UNL1        0.3323
     17 N          17.3884   70.4923   -9.3988 N.ar    1  UNL1       -0.2743
     18 C          18.7278   70.5292   -9.5493 C.ar    1  UNL1        0.2626
     19 C          19.5542   70.5544   -8.4007 C.ar    1  UNL1        0.0795
     20 C          18.9819   70.5428   -7.1777 C.ar    1  UNL1        0.0869
     21 O          15.6347   70.4428   -8.0481 O.2     1  UNL1       -0.2464
     22 O          19.2210   70.5390  -10.6620 O.2     1  UNL1       -0.2670
     23 H          16.8151   70.4754  -10.1806 H       1  UNL1        0.1734
     24 O          21.9801   70.5403   -2.4817 O.3     1  UNL1       -0.2703
     25 P          22.8275   71.9077   -2.4421 P.3     1  UNL1        0.2208
     26 O          22.0734   72.9754   -3.1349 O.2     1  UNL1       -0.5170
     27 O          24.2413   71.6852   -3.1796 O.3     1  UNL1       -0.4371
     28 O          23.0837   72.3377   -0.9124 O.3     1  UNL1       -0.2865
     29 C          22.5008   71.3225   -0.0934 C.3     1  UNL1        0.2611
     30 C          21.4476   71.9529    0.8195 C.3     1  UNL1        0.1582
     31 C          22.1132   73.0296    1.6838 C.3     1  UNL1        0.1625
     32 C          23.3127   72.4064    2.4056 C.3     1  UNL1        0.1686
     33 C          24.2270   71.7444    1.3726 C.3     1  UNL1        0.1760
     34 O          21.1753   73.5210    2.6432 O.3     1  UNL1       -0.3801
     35 O          24.0340   73.4251    3.1011 O.3     1  UNL1       -0.3794
     36 O          23.5177   70.7078    0.6951 O.3     1  UNL1       -0.3263
     37 H          21.6347   74.1943    3.1636 H       1  UNL1        0.2105
     38 H          24.7792   72.9905    3.5395 H       1  UNL1        0.2105
     39 C          20.4301   73.8779   -0.2730 C.2     1  UNL1        0.2231
     40 C          19.3444   74.5028   -1.1114 C.3     1  UNL1        0.0946
     41 N          20.3934   72.5603    0.0046 N.am    1  UNL1       -0.2994
     42 O          21.3366   74.5614    0.1526 O.2     1  UNL1       -0.2751
     43 H          19.6679   72.0132   -0.3357 H       1  UNL1        0.1496
     44 C          25.4450   71.1468    2.0800 C.3     1  UNL1        0.1693
     45 O          25.0885   69.8934    2.6664 O.3     1  UNL1       -0.3794
     46 H          25.8817   69.5520    3.1009 H       1  UNL1        0.2105
@<TRIPOS>BOND
     1    29    30    1
     2    29    28    1
     3    29    36    1
     4    30    31    1
     5    30    41    1
     6    31    32    1
     7    31    34    1
     8    32    33    1
     9    32    35    1
    10    33    44    1
    11    33    36    1
    12    44    45    1
    13    39    40    1
    14    39    41   am
    15    39    42    2
    16    41    43    1
    17    28    25    1
    18    34    37    1
    19    35    38    1
    20    45    46    1
    21    15    16   ar
    22    15    20   ar
    23    15     6    1
    24    16    17   ar
    25    16    21    2
    26    17    18   ar
    27    17    23    1
    28    18    19   ar
    29    18    22    2
    30    19    20   ar
    31     6     7    1
    32     6    11    1
    33     7     8    1
    34     7     9    1
    35     8    13    1
    36     9    10    1
    37     9    12    1
    38    10    11    1
    39    10     5    1
    40    12    14    1
    41     5     4    1
    42     4     1    1
    43     1     2    2
    44     1     3    1
    45     1    24    1
    46    24    25    1
    47    25    26    2
    48    25    27    1
@<TRIPOS>MOLECULE
UD1
 46 48 0 0 0
SMALL
GASTEIGER

@<TRIPOS>ATOM
      1 P          20.6729   71.4337   -1.2468 P.3     1  UNL1        0.2189
      2 O          21.4744   70.6041   -2.1731 O.2     1  UNL1       -0.5170
      3 O          20.8567   70.8890    0.2573 O.3     1  UNL1       -0.4371
      4 O          19.1190   71.3504   -1.6605 O.3     1  UNL1       -0.3112
      5 C          18.9931   70.2641   -2.5795 C.3     1  UNL1        0.1811
      6 C          17.1964   70.4015   -5.6909 C.3     1  UNL1        0.2383
      7 C          17.0067   68.9454   -5.1970 C.3     1  UNL1        0.1895
      8 O          15.7524   68.4180   -5.6305 O.3     1  UNL1       -0.3779
      9 C          17.0314   69.1183   -3.6560 C.3     1  UNL1        0.1713
     10 C          17.7463   70.4665   -3.4420 C.3     1  UNL1        0.1764
     11 O          18.1234   70.9632   -4.7375 O.3     1  UNL1       -0.3308
     12 O          15.7008   69.1622   -3.1361 O.3     1  UNL1       -0.3794
     13 H          15.6968   67.5135   -5.2922 H       1  UNL1        0.2106
     14 H          15.2880   68.3158   -3.3534 H       1  UNL1        0.2105
     15 N          17.7659   70.4228   -7.0387 N.ar    1  UNL1       -0.2551
     16 C          16.9496   70.4421   -8.1067 C.ar    1  UNL1        0.3323
     17 N          17.4457   70.4659   -9.3579 N.ar    1  UNL1       -0.2743
     18 C          18.7787   70.4614   -9.5606 C.ar    1  UNL1        0.2626
     19 C          19.6495   70.4352   -8.4453 C.ar    1  UNL1        0.0795
     20 C          19.1251   70.4170   -7.2011 C.ar    1  UNL1        0.0869
     21 O          15.7451   70.4465   -7.9402 O.2     1  UNL1       -0.2464
     22 O          19.2283   70.4781  -10.6915 O.2     1  UNL1       -0.2670
     23 H          16.8422   70.4845  -10.1166 H       1  UNL1        0.1734
     24 O          21.1688   72.9621   -1.3294 O.3     1  UNL1       -0.2703
     25 P          22.7242   72.9692   -0.9170 P.3     1  UNL1        0.2208
     26 O          23.2457   71.5848   -0.9362 O.2     1  UNL1       -0.5170
     27 O          22.8850   73.5820    0.5631 O.3     1  UNL1       -0.4371
     28 O          23.5537   73.8694   -1.9620 O.3     1  UNL1       -0.2865
     29 C          22.7633   75.0293   -2.2285 C.3     1  UNL1        0.2611
     30 C          22.5770   75.1772   -3.7396 C.3     1  UNL1        0.1582
     31 C          23.9528   75.2954   -4.4051 C.3     1  UNL1        0.1625
     32 C          24.7281   76.4314   -3.7294 C.3     1  UNL1        0.1686
     33 C          24.7547   76.1872   -2.2191 C.3     1  UNL1        0.1760
     34 O          23.7894   75.5833   -5.7950 O.3     1  UNL1       -0.3801
     35 O          26.0648   76.4635   -4.2333 O.3     1  UNL1       -0.3794
     36 O          23.4223   76.1818   -1.7081 O.3     1  UNL1       -0.3263
     37 H          24.6771   75.6487   -6.1730 H       1  UNL1        0.2105
     38 H          26.5165   77.1907   -3.7819 H       1  UNL1        0.2105
     39 C          22.5793   72.9639   -4.7572 C.2     1  UNL1        0.2231
     40 C          21.8588   71.7552   -5.2977 C.3     1  UNL1        0.0946
     41 N          21.8775   74.0026   -4.2643 N.am    1  UNL1       -0.2994
     42 O          23.7912   73.0018   -4.7667 O.2     1  UNL1       -0.2751
     43 H          20.9077   73.9726   -4.2569 H       1  UNL1        0.1496
     44 C          25.5548   77.2994   -1.5379 C.3     1  UNL1        0.1693
     45 O          26.8694   77.3512   -2.0956 O.3     1  UNL1       -0.3794
     46 H          27.3389   78.0628   -1.6398 H       1  UNL1        0.2105
@<TRIPOS>BOND
     1    29    30    1
     2    29    28    1
     3    29    36    1
     4    30    31    1
     5    30    41    1
     6    31    32    1
     7    31    34    1
     8    32    33    1
     9    32    35    1
    10    33    44    1
    11    33    36    1
    12    44    45    1
    13    39    40    1
    14    39    41   am
    15    39    42    2
    16    41    43    1
    17    28    25    1
    18    34    37    1
    19    35    38    1
    20    45    46    1
    21    15    16   ar
    22    15    20   ar
    23    15     6    1
    24    16    17   ar
    25    16    21    2
    26    17    18   ar
    27    17    23    1
    28    18    19   ar
    29    18    22    2
    30    19    20   ar
    31     6     7    1
    32     6    11    1
    33     7     8    1
    34     7     9    1
    35     8    13    1
    36     9    10    1
    37     9    12    1
    38    10    11    1
    39    10     5    1
    40    12    14    1
    41     5     4    1
    42     4     1    1
    43     1     2    2
    44     1     3    1
    45     1    24    1
    46    24    25    1
    47    25    26    2
    48    25    27    1
@<TRIPOS>MOLECULE
UD1
 46 48 0 0 0
SMALL
GASTEIGER

@<TRIPOS>ATOM
      1 P          20.6757   71.1762   -0.7778 P.3     1  UNL1        0.2189
      2 O          20.4653   72.6147   -0.5034 O.2     1  UNL1       -0.5170
      3 O          21.7964   71.0063   -1.9214 O.3     1  UNL1       -0.4371
      4 O          19.2943   70.5185   -1.2797 O.3     1  UNL1       -0.3112
      5 C          19.4773   70.1679   -2.6522 C.3     1  UNL1        0.1811
      6 C          17.4849   70.4247   -5.6341 C.3     1  UNL1        0.2383
      7 C          17.2329   68.9845   -5.1217 C.3     1  UNL1        0.1895
      8 O          15.9196   68.5420   -5.4660 O.3     1  UNL1       -0.3779
      9 C          17.3746   69.1555   -3.5868 C.3     1  UNL1        0.1713
     10 C          18.1907   70.4530   -3.4284 C.3     1  UNL1        0.1764
     11 O          18.5103   70.9234   -4.7489 O.3     1  UNL1       -0.3308
     12 O          16.0886   69.2882   -2.9773 O.3     1  UNL1       -0.3794
     13 H          15.8272   67.6433   -5.1205 H       1  UNL1        0.2106
     14 H          15.6065   68.4712   -3.1619 H       1  UNL1        0.2105
     15 N          17.9608   70.4079   -7.0178 N.ar    1  UNL1       -0.2551
     16 C          17.0734   70.3945   -8.0275 C.ar    1  UNL1        0.3323
     17 N          17.4827   70.3828   -9.3099 N.ar    1  UNL1       -0.2743
     18 C          18.7987   70.3750   -9.6031 C.ar    1  UNL1        0.2626
     19 C          19.7438   70.3829   -8.5497 C.ar    1  UNL1        0.0795
     20 C          19.3058   70.4000   -7.2725 C.ar    1  UNL1        0.0869
     21 O          15.8831   70.4014   -7.7792 O.2     1  UNL1       -0.2464
     22 O          19.1699   70.3596  -10.7621 O.2     1  UNL1       -0.2670
     23 H          16.8287   70.3781  -10.0258 H       1  UNL1        0.1734
     24 O          21.1635   70.4391    0.5667 O.3     1  UNL1       -0.2703
     25 P          22.3456   71.3376    1.1867 P.3     1  UNL1        0.2208
     26 O          22.7511   72.3660    0.2033 O.2     1  UNL1       -0.5170
     27 O          23.6079   70.4002    1.5331 O.3     1  UNL1       -0.4371
     28 O          21.8273   72.0554    2.5308 O.3     1  UNL1       -0.2865
     29 C          22.2052   73.4302    2.4387 C.3     1  UNL1        0.2611
     30 C          23.1405   73.7756    3.5988 C.3     1  UNL1        0.1582
     31 C          22.4194   73.5002    4.9231 C.3     1  UNL1        0.1625
     32 C          21.0825   74.2490    4.9182 C.3     1  UNL1        0.1686
     33 C          20.3011   73.8655    3.6599 C.3     1  UNL1        0.1760
     34 O          23.2246   73.9580    6.0110 O.3     1  UNL1       -0.3801
     35 O          20.3294   73.8901    6.0782 O.3     1  UNL1       -0.3794
     36 O          21.0383   74.2475    2.4993 O.3     1  UNL1       -0.3263
     37 H          22.7342   73.7652    6.8220 H       1  UNL1        0.2105
     38 H          19.4973   74.3822    6.0348 H       1  UNL1        0.2105
     39 C          25.4860   73.4691    3.0164 C.2     1  UNL1        0.2231
     40 C          26.7284   72.6197    2.9319 C.3     1  UNL1        0.0946
     41 N          24.3479   72.9510    3.5170 N.am    1  UNL1       -0.2994
     42 O          25.5106   74.6192    2.6331 O.2     1  UNL1       -0.2751
     43 H          24.3279   72.0306    3.8235 H       1  UNL1        0.1496
     44 C          18.9498   74.5833    3.6615 C.3     1  UNL1        0.1693
     45 O          19.0547   75.7951    4.4118 O.3     1  UNL1       -0.3794
     46 H          18.1842   76.2150    4.3881 H       1  UNL1        0.2105
@<TRIPOS>BOND
     1    29    30    1
     2    29    28    1
     3    29    36    1
     4    30    31    1
     5    30    41    1
     6    31    32    1
     7    31    34    1
     8    32    33    1
     9    32    35    1
    10    33    44    1
    11    33    36    1
    12    44    45    1
    13    39    40    1
    14    39    41   am
    15    39    42    2
    16    41    43    1
    17    28    25    1
    18    34    37    1
    19    35    38    1
    20    45    46    1
    21    15    16   ar
    22    15    20   ar
    23    15     6    1
    24    16    17   ar
    25    16    21    2
    26    17    18   ar
    27    17    23    1
    28    18    19   ar
    29    18    22    2
    30    19    20   ar
    31     6     7    1
    32     6    11    1
    33     7     8    1
    34     7     9    1
    35     8    13    1
    36     9    10    1
    37     9    12    1
    38    10    11    1
    39    10     5    1
    40    12    14    1
    41     5     4    1
    42     4     1    1
    43     1     2    2
    44     1     3    1
    45     1    24    1
    46    24    25    1
    47    25    26    2
    48    25    27    1
@<TRIPOS>MOLECULE
UD1
 46 48 0 0 0
SMALL
GASTEIGER

@<TRIPOS>ATOM
      1 P          16.3353   70.3920   -3.0038 P.3     1  UNL1        0.2189
      2 O          16.1595   68.9232   -3.0279 O.2     1  UNL1       -0.5170
      3 O          17.7062   70.7560   -2.2419 O.3     1  UNL1       -0.4371
      4 O          15.0960   71.0675   -2.2286 O.3     1  UNL1       -0.3112
      5 C          14.9852   70.4045   -0.9683 C.3     1  UNL1        0.1811
      6 C          12.6499   68.1079    0.5148 C.3     1  UNL1        0.2383
      7 C          12.0501   69.5081    0.7975 C.3     1  UNL1        0.1895
      8 O          10.6240   69.4528    0.8465 O.3     1  UNL1       -0.3779
      9 C          12.5305   70.3224   -0.4318 C.3     1  UNL1        0.1713
     10 C          13.7357   69.5225   -0.9630 C.3     1  UNL1        0.1764
     11 O          13.9308   68.4035   -0.0816 O.3     1  UNL1       -0.3308
     12 O          11.4978   70.3970   -1.4171 O.3     1  UNL1       -0.3794
     13 H          10.3148   70.3517    1.0253 H       1  UNL1        0.2106
     14 H          10.7521   70.8541   -1.0060 H       1  UNL1        0.2105
     15 N          12.8208   67.3553    1.7581 N.ar    1  UNL1       -0.2551
     16 C          12.5104   66.0477    1.7935 C.ar    1  UNL1        0.3323
     17 N          12.6612   65.3298    2.9223 N.ar    1  UNL1       -0.2743
     18 C          13.1207   65.9179    4.0453 C.ar    1  UNL1        0.2626
     19 C          13.4456   67.2951    4.0236 C.ar    1  UNL1        0.0795
     20 C          13.2898   67.9902    2.8765 C.ar    1  UNL1        0.0869
     21 O          12.0949   65.5032    0.7888 O.2     1  UNL1       -0.2464
     22 O          13.2529   65.2709    5.0676 O.2     1  UNL1       -0.2670
     23 H          12.4369   64.3865    2.9285 H       1  UNL1        0.1734
     24 O          16.3935   70.9504   -4.5116 O.3     1  UNL1       -0.2703
     25 P          17.3190   69.9341   -5.3483 P.3     1  UNL1        0.2208
     26 O          16.7061   69.6845   -6.6715 O.2     1  UNL1       -0.5170
     27 O          17.4502   68.5435   -4.5476 O.3     1  UNL1       -0.4371
     28 O          18.7810   70.5773   -5.5469 O.3     1  UNL1       -0.2865
     29 C          18.6005   71.9901   -5.6594 C.3     1  UNL1        0.2611
     30 C          19.2679   72.4837   -6.9442 C.3     1  UNL1        0.1582
     31 C          20.7589   72.1303   -6.9023 C.3     1  UNL1        0.1625
     32 C          21.3569   72.6816   -5.6036 C.3     1  UNL1        0.1686
     33 C          20.5335   72.1704   -4.4195 C.3     1  UNL1        0.1760
     34 O          21.4215   72.7156   -8.0247 O.3     1  UNL1       -0.3801
     35 O          22.7090   72.2383   -5.4741 O.3     1  UNL1       -0.3794
     36 O          19.1886   72.6343   -4.5313 O.3     1  UNL1       -0.3263
     37 H          22.3541   72.4684   -7.9587 H       1  UNL1        0.2105
     38 H          23.0460   72.6064   -4.6450 H       1  UNL1        0.2105
     39 C          19.2051   70.7424   -8.6466 C.2     1  UNL1        0.2231
     40 C          18.5617   70.0781   -9.8370 C.3     1  UNL1        0.0946
     41 N          18.6430   71.8378   -8.1003 N.am    1  UNL1       -0.2994
     42 O          20.2296   70.2912   -8.1808 O.2     1  UNL1       -0.2751
     43 H          17.8232   72.1992   -8.4731 H       1  UNL1        0.1496
     44 C          21.1421   72.6890   -3.1149 C.3     1  UNL1        0.1693
     45 O          21.1491   71.6417   -2.1427 O.3     1  UNL1       -0.3794
     46 H          21.5390   72.0095   -1.3381 H       1  UNL1        0.2105
@<TRIPOS>BOND
     1    29    30    1
     2    29    28    1
     3    29    36    1
     4    30    31    1
     5    30    41    1
     6    31    32    1
     7    31    34    1
     8    32    33    1
     9    32    35    1
    10    33    44    1
    11    33    36    1
    12    44    45    1
    13    39    40    1
    14    39    41   am
    15    39    42    2
    16    41    43    1
    17    28    25    1
    18    34    37    1
    19    35    38    1
    20    45    46    1
    21    15    16   ar
    22    15    20   ar
    23    15     6    1
    24    16    17   ar
    25    16    21    2
    26    17    18   ar
    27    17    23    1
    28    18    19   ar
    29    18    22    2
    30    19    20   ar
    31     6     7    1
    32     6    11    1
    33     7     8    1
    34     7     9    1
    35     8    13    1
    36     9    10    1
    37     9    12    1
    38    10    11    1
    39    10     5    1
    40    12    14    1
    41     5     4    1
    42     4     1    1
    43     1     2    2
    44     1     3    1
    45     1    24    1
    46    24    25    1
    47    25    26    2
    48    25    27    1
@<TRIPOS>MOLECULE
UD1
 46 48 0 0 0
SMALL
GASTEIGER

@<TRIPOS>ATOM
      1 P          21.7297   72.3523   -6.2335 P.3     1  UNL1        0.2189
      2 O          20.6757   73.3423   -6.5464 O.2     1  UNL1       -0.5170
      3 O          23.1636   72.9377   -6.6737 O.3     1  UNL1       -0.4371
      4 O          21.4387   70.9875   -7.0370 O.3     1  UNL1       -0.3112
      5 C          20.5948   71.3274   -8.1382 C.3     1  UNL1        0.1811
      6 C          17.4449   70.0949   -6.9191 C.3     1  UNL1        0.2383
      7 C          17.0620   71.1385   -7.9982 C.3     1  UNL1        0.1895
      8 O          15.8322   70.7886   -8.6341 O.3     1  UNL1       -0.3779
      9 C          18.2486   71.0308   -8.9909 C.3     1  UNL1        0.1713
     10 C          19.3792   70.3994   -8.1558 C.3     1  UNL1        0.1764
     11 O          18.8792   70.2231   -6.8194 O.3     1  UNL1       -0.3308
     12 O          17.9033   70.1902  -10.0941 O.3     1  UNL1       -0.3794
     13 H          15.6513   71.4750   -9.2910 H       1  UNL1        0.2106
     14 H          17.1542   70.6078  -10.5397 H       1  UNL1        0.2105
     15 N          16.8082   70.4125   -5.6403 N.ar    1  UNL1       -0.2551
     16 C          16.3912   69.4173   -4.8384 C.ar    1  UNL1        0.3323
     17 N          15.8058   69.6799   -3.6549 N.ar    1  UNL1       -0.2743
     18 C          15.6193   70.9546   -3.2571 C.ar    1  UNL1        0.2626
     19 C          16.0481   72.0120   -4.0943 C.ar    1  UNL1        0.0795
     20 C          16.6371   71.7202   -5.2738 C.ar    1  UNL1        0.0869
     21 O          16.5525   68.2624   -5.1832 O.2     1  UNL1       -0.2464
     22 O          15.0858   71.1933   -2.1895 O.2     1  UNL1       -0.2670
     23 H          15.5155   68.9497   -3.0869 H       1  UNL1        0.1734
     24 O          21.7332   72.0537   -4.6525 O.3     1  UNL1       -0.2703
     25 P          22.6847   73.1591   -3.9728 P.3     1  UNL1        0.2208
     26 O          22.5298   74.4474   -4.6836 O.2     1  UNL1       -0.5170
     27 O          24.2183   72.6776   -4.0643 O.3     1  UNL1       -0.4371
     28 O          22.2737   73.3459   -2.4279 O.3     1  UNL1       -0.2865
     29 C          23.1504   72.5171   -1.6626 C.3     1  UNL1        0.2611
     30 C          22.3214   71.6190   -0.7427 C.3     1  UNL1        0.1582
     31 C          21.4664   72.4973    0.1778 C.3     1  UNL1        0.1625
     32 C          22.3832   73.4949    0.8936 C.3     1  UNL1        0.1686
     33 C          23.2054   74.2537   -0.1501 C.3     1  UNL1        0.1760
     34 O          20.8015   71.6770    1.1403 O.3     1  UNL1       -0.3801
     35 O          21.5916   74.4181    1.6439 O.3     1  UNL1       -0.3794
     36 O          24.0178   73.3375   -0.8830 O.3     1  UNL1       -0.3263
     37 H          20.2764   72.2688    1.6966 H       1  UNL1        0.2105
     38 H          22.2069   75.0268    2.0767 H       1  UNL1        0.2105
     39 C          20.1706   71.1164   -1.7702 C.2     1  UNL1        0.2231
     40 C          19.2749   70.2329   -2.6005 C.3     1  UNL1        0.0946
     41 N          21.4510   70.7613   -1.5497 N.am    1  UNL1       -0.2994
     42 O          19.7383   72.1470   -1.2998 O.2     1  UNL1       -0.2751
     43 H          21.7971   69.9366   -1.9258 H       1  UNL1        0.1496
     44 C          24.1012   75.2758    0.5528 C.3     1  UNL1        0.1693
     45 O          25.1567   74.5955    1.2348 O.3     1  UNL1       -0.3794
     46 H          25.6960   75.2739    1.6632 H       1  UNL1        0.2105
@<TRIPOS>BOND
     1    29    30    1
     2    29    28    1
     3    29    36    1
     4    30    31    1
     5    30    41    1
     6    31    32    1
     7    31    34    1
     8    32    33    1
     9    32    35    1
    10    33    44    1
    11    33    36    1
    12    44    45    1
    13    39    40    1
    14    39    41   am
    15    39    42    2
    16    41    43    1
    17    28    25    1
    18    34    37    1
    19    35    38    1
    20    45    46    1
    21    15    16   ar
    22    15    20   ar
    23    15     6    1
    24    16    17   ar
    25    16    21    2
    26    17    18   ar
    27    17    23    1
    28    18    19   ar
    29    18    22    2
    30    19    20   ar
    31     6     7    1
    32     6    11    1
    33     7     8    1
    34     7     9    1
    35     8    13    1
    36     9    10    1
    37     9    12    1
    38    10    11    1
    39    10     5    1
    40    12    14    1
    41     5     4    1
    42     4     1    1
    43     1     2    2
    44     1     3    1
    45     1    24    1
    46    24    25    1
    47    25    26    2
    48    25    27    1
@<TRIPOS>MOLECULE
UD1
 46 48 0 0 0
SMALL
GASTEIGER

@<TRIPOS>ATOM
      1 P          21.5942   71.1020   -0.2111 P.3     1  UNL1        0.2189
      2 O          21.5425   70.2093    0.9675 O.2     1  UNL1       -0.5170
      3 O          23.0480   71.0030   -0.8961 O.3     1  UNL1       -0.4371
      4 O          21.3232   72.6197    0.2536 O.3     1  UNL1       -0.3112
      5 C          22.4521   73.0223    1.0308 C.3     1  UNL1        0.1811
      6 C          22.7599   73.4910    4.5822 C.3     1  UNL1        0.2383
      7 C          21.4106   74.1596    4.2179 C.3     1  UNL1        0.1895
      8 O          20.4870   74.0716    5.3035 O.3     1  UNL1       -0.3779
      9 C          20.9359   73.3016    3.0165 C.3     1  UNL1        0.1713
     10 C          22.2267   72.6413    2.4947 C.3     1  UNL1        0.1764
     11 O          23.3140   73.1282    3.2997 O.3     1  UNL1       -0.3308
     12 O          19.9990   72.3120    3.4476 O.3     1  UNL1       -0.3794
     13 H          19.6721   74.5046    5.0138 H       1  UNL1        0.2106
     14 H          19.2422   72.7861    3.8171 H       1  UNL1        0.2105
     15 N          23.6372   74.4353    5.2751 N.ar    1  UNL1       -0.2551
     16 C          24.1702   75.4682    4.5996 C.ar    1  UNL1        0.3323
     17 N          24.9774   76.3545    5.2122 N.ar    1  UNL1       -0.2743
     18 C          25.2730   76.2133    6.5201 C.ar    1  UNL1        0.2626
     19 C          24.7234   75.1270    7.2418 C.ar    1  UNL1        0.0795
     20 C          23.9126   74.2558    6.6039 C.ar    1  UNL1        0.0869
     21 O          23.9129   75.6091    3.4195 O.2     1  UNL1       -0.2464
     22 O          26.0065   77.0112    7.0739 O.2     1  UNL1       -0.2670
     23 H          25.3493   77.0963    4.7107 H       1  UNL1        0.1734
     24 O          20.4689   70.6566   -1.2714 O.3     1  UNL1       -0.2703
     25 P          20.9422   71.2034   -2.7089 P.3     1  UNL1        0.2208
     26 O          22.2247   70.5665   -3.0809 O.2     1  UNL1       -0.5170
     27 O          21.1373   72.8000   -2.6388 O.3     1  UNL1       -0.4371
     28 O          19.8267   70.8485   -3.8134 O.3     1  UNL1       -0.2865
     29 C          19.4371   72.0818   -4.4203 C.3     1  UNL1        0.2611
     30 C          17.9108   72.1457   -4.4996 C.3     1  UNL1        0.1582
     31 C          17.4012   70.9548   -5.3191 C.3     1  UNL1        0.1625
     32 C          18.1245   70.9440   -6.6700 C.3     1  UNL1        0.1686
     33 C          19.6350   70.9676   -6.4267 C.3     1  UNL1        0.1760
     34 O          15.9935   71.0838   -5.5269 O.3     1  UNL1       -0.3801
     35 O          17.7735   69.7611   -7.3906 O.3     1  UNL1       -0.3794
     36 O          19.9927   72.1613   -5.7311 O.3     1  UNL1       -0.3263
     37 H          15.7160   70.3156   -6.0448 H       1  UNL1        0.2105
     38 H          18.2502   69.7944   -8.2321 H       1  UNL1        0.2105
     39 C          17.0210   73.2268   -2.5062 C.2     1  UNL1        0.2231
     40 C          16.4413   73.1680   -1.1159 C.3     1  UNL1        0.0946
     41 N          17.3472   72.0891   -3.1493 N.am    1  UNL1       -0.2994
     42 O          17.1945   74.2986   -3.0459 O.2     1  UNL1       -0.2751
     43 H          17.2087   71.2312   -2.7175 H       1  UNL1        0.1496
     44 C          20.3673   70.9243   -7.7695 C.3     1  UNL1        0.1693
     45 O          20.7342   72.2503   -8.1555 O.3     1  UNL1       -0.3794
     46 H          21.1915   72.1783   -9.0042 H       1  UNL1        0.2105
@<TRIPOS>BOND
     1    29    30    1
     2    29    28    1
     3    29    36    1
     4    30    31    1
     5    30    41    1
     6    31    32    1
     7    31    34    1
     8    32    33    1
     9    32    35    1
    10    33    44    1
    11    33    36    1
    12    44    45    1
    13    39    40    1
    14    39    41   am
    15    39    42    2
    16    41    43    1
    17    28    25    1
    18    34    37    1
    19    35    38    1
    20    45    46    1
    21    15    16   ar
    22    15    20   ar
    23    15     6    1
    24    16    17   ar
    25    16    21    2
    26    17    18   ar
    27    17    23    1
    28    18    19   ar
    29    18    22    2
    30    19    20   ar
    31     6     7    1
    32     6    11    1
    33     7     8    1
    34     7     9    1
    35     8    13    1
    36     9    10    1
    37     9    12    1
    38    10    11    1
    39    10     5    1
    40    12    14    1
    41     5     4    1
    42     4     1    1
    43     1     2    2
    44     1     3    1
    45     1    24    1
    46    24    25    1
    47    25    26    2
    48    25    27    1
@<TRIPOS>MOLECULE
UD1
 46 48 0 0 0
SMALL
GASTEIGER

@<TRIPOS>ATOM
      1 P          17.1885   69.4869   -2.7489 P.3     1  UNL1        0.2189
      2 O          16.5157   70.6243   -3.4141 O.2     1  UNL1       -0.5170
      3 O          17.6269   68.4015   -3.8544 O.3     1  UNL1       -0.4371
      4 O          16.1754   68.8039   -1.7000 O.3     1  UNL1       -0.3112
      5 C          15.3325   69.8438   -1.2016 C.3     1  UNL1        0.1811
      6 C          12.7387   68.1783    0.6493 C.3     1  UNL1        0.2383
      7 C          12.5534   69.6792    0.9860 C.3     1  UNL1        0.1895
      8 O          11.1808   69.9802    1.2405 O.3     1  UNL1       -0.3779
      9 C          13.0385   70.3674   -0.3164 C.3     1  UNL1        0.1713
     10 C          13.9171   69.3009   -0.9985 C.3     1  UNL1        0.1764
     11 O          13.9528   68.1548   -0.1310 O.3     1  UNL1       -0.3308
     12 O          11.9258   70.7124   -1.1444 O.3     1  UNL1       -0.3794
     13 H          11.1341   70.9248    1.4432 H       1  UNL1        0.2106
     14 H          11.3846   71.3344   -0.6400 H       1  UNL1        0.2105
     15 N          12.8946   67.3874    1.8706 N.ar    1  UNL1       -0.2551
     16 C          12.5583   66.0858    1.8689 C.ar    1  UNL1        0.3323
     17 N          12.6950   65.3332    2.9767 N.ar    1  UNL1       -0.2743
     18 C          13.1660   65.8798    4.1157 C.ar    1  UNL1        0.2626
     19 C          13.5182   67.2504    4.1331 C.ar    1  UNL1        0.0795
     20 C          13.3761   67.9808    3.0063 C.ar    1  UNL1        0.0869
     21 O          12.1322   65.5784    0.8494 O.2     1  UNL1       -0.2464
     22 O          13.2854   65.2014    5.1192 O.2     1  UNL1       -0.2670
     23 H          12.4520   64.3947    2.9562 H       1  UNL1        0.1734
     24 O          18.4922   70.0163   -1.9685 O.3     1  UNL1       -0.2703
     25 P          19.6394   70.2356   -3.0754 P.3     1  UNL1        0.2208
     26 O          20.0802   68.9227   -3.5956 O.2     1  UNL1       -0.5170
     27 O          20.8919   70.9956   -2.4078 O.3     1  UNL1       -0.4371
     28 O          19.0571   71.1238   -4.2848 O.3     1  UNL1       -0.2865
     29 C          19.8709   70.8527   -5.4273 C.3     1  UNL1        0.2611
     30 C          20.4374   72.1670   -5.9673 C.3     1  UNL1        0.1582
     31 C          19.2775   73.0981   -6.3378 C.3     1  UNL1        0.1625
     32 C          18.3364   72.3534   -7.2906 C.3     1  UNL1        0.1686
     33 C          17.9259   71.0261   -6.6493 C.3     1  UNL1        0.1760
     34 O          19.7885   74.2671   -6.9809 O.3     1  UNL1       -0.3801
     35 O          17.1741   73.1484   -7.5327 O.3     1  UNL1       -0.3794
     36 O          19.0818   70.2181   -6.4314 O.3     1  UNL1       -0.3263
     37 H          19.0270   74.8233   -7.1957 H       1  UNL1        0.2105
     38 H          16.6099   72.6430   -8.1350 H       1  UNL1        0.2105
     39 C          22.6025   72.8712   -5.1010 C.2     1  UNL1        0.2231
     40 C          23.4561   73.5239   -4.0438 C.3     1  UNL1        0.0946
     41 N          21.2670   72.8014   -4.9408 N.am    1  UNL1       -0.2994
     42 O          23.1182   72.4081   -6.0959 O.2     1  UNL1       -0.2751
     43 H          20.8541   73.1717   -4.1446 H       1  UNL1        0.1496
     44 C          16.9598   70.2891   -7.5792 C.3     1  UNL1        0.1693
     45 O          15.6150   70.5439   -7.1685 O.3     1  UNL1       -0.3794
     46 H          15.0401   70.0623   -7.7785 H       1  UNL1        0.2105
@<TRIPOS>BOND
     1    29    30    1
     2    29    28    1
     3    29    36    1
     4    30    31    1
     5    30    41    1
     6    31    32    1
     7    31    34    1
     8    32    33    1
     9    32    35    1
    10    33    44    1
    11    33    36    1
    12    44    45    1
    13    39    40    1
    14    39    41   am
    15    39    42    2
    16    41    43    1
    17    28    25    1
    18    34    37    1
    19    35    38    1
    20    45    46    1
    21    15    16   ar
    22    15    20   ar
    23    15     6    1
    24    16    17   ar
    25    16    21    2
    26    17    18   ar
    27    17    23    1
    28    18    19   ar
    29    18    22    2
    30    19    20   ar
    31     6     7    1
    32     6    11    1
    33     7     8    1
    34     7     9    1
    35     8    13    1
    36     9    10    1
    37     9    12    1
    38    10    11    1
    39    10     5    1
    40    12    14    1
    41     5     4    1
    42     4     1    1
    43     1     2    2
    44     1     3    1
    45     1    24    1
    46    24    25    1
    47    25    26    2
    48    25    27    1
@<TRIPOS>MOLECULE
UD1
 46 48 0 0 0
SMALL
GASTEIGER

@<TRIPOS>ATOM
      1 P          16.8132   72.5752   -2.6603 P.3     1  UNL1        0.2189
      2 O          16.7603   73.5770   -1.5729 O.2     1  UNL1       -0.5170
      3 O          17.1952   73.3046   -4.0440 O.3     1  UNL1       -0.4371
      4 O          15.3744   71.8673   -2.8074 O.3     1  UNL1       -0.3112
      5 C          15.1194   71.1884   -1.5768 C.3     1  UNL1        0.1811
      6 C          12.6786   68.8029   -0.4457 C.3     1  UNL1        0.2383
      7 C          12.1292   70.1731    0.0244 C.3     1  UNL1        0.1895
      8 O          10.7015   70.1683    0.0541 O.3     1  UNL1       -0.3779
      9 C          12.6565   71.1303   -1.0760 C.3     1  UNL1        0.1713
     10 C          13.8371   70.3645   -1.7040 C.3     1  UNL1        0.1764
     11 O          13.9776   69.1272   -0.9852 O.3     1  UNL1       -0.3308
     12 O          11.6405   71.3818   -2.0493 O.3     1  UNL1       -0.3794
     13 H          10.4246   71.0452    0.3539 H       1  UNL1        0.2106
     14 H          10.9075   71.8067   -1.5844 H       1  UNL1        0.2105
     15 N          12.8042   67.8790    0.6822 N.ar    1  UNL1       -0.2551
     16 C          11.8329   66.9800    0.9183 C.ar    1  UNL1        0.3323
     17 N          11.9238   66.1153    1.9461 N.ar    1  UNL1       -0.2743
     18 C          12.9938   66.1443    2.7659 C.ar    1  UNL1        0.2626
     19 C          14.0208   67.0896    2.5324 C.ar    1  UNL1        0.0795
     20 C          13.9068   67.9417    1.4910 C.ar    1  UNL1        0.0869
     21 O          10.8616   66.9415    0.1878 O.2     1  UNL1       -0.2464
     22 O          13.0747   65.3662    3.6983 O.2     1  UNL1       -0.2670
     23 H          11.2161   65.4704    2.0988 H       1  UNL1        0.1734
     24 O          17.9245   71.4646   -2.3133 O.3     1  UNL1       -0.2703
     25 P          18.3097   70.7436   -3.6993 P.3     1  UNL1        0.2208
     26 O          17.1287   70.7243   -4.5901 O.2     1  UNL1       -0.5170
     27 O          18.7842   69.2333   -3.4057 O.3     1  UNL1       -0.4371
     28 O          19.5058   71.5514   -4.4116 O.3     1  UNL1       -0.2865
     29 C          20.5046   70.5911   -4.7600 C.3     1  UNL1        0.2611
     30 C          21.8901   71.1951   -4.5241 C.3     1  UNL1        0.1582
     31 C          22.0365   72.4613   -5.3754 C.3     1  UNL1        0.1625
     32 C          21.7172   72.1116   -6.8328 C.3     1  UNL1        0.1686
     33 C          20.3432   71.4411   -6.8949 C.3     1  UNL1        0.1760
     34 O          23.3753   72.9508   -5.2793 O.3     1  UNL1       -0.3801
     35 O          21.7043   73.3048   -7.6188 O.3     1  UNL1       -0.3794
     36 O          20.3607   70.2345   -6.1331 O.3     1  UNL1       -0.3263
     37 H          23.4223   73.7456   -5.8282 H       1  UNL1        0.2105
     38 H          21.4991   73.0396   -8.5266 H       1  UNL1        0.2105
     39 C          23.2153   71.3205   -2.4839 C.2     1  UNL1        0.2231
     40 C          23.3703   71.6711   -1.0260 C.3     1  UNL1        0.0946
     41 N          22.0413   71.5359   -3.1080 N.am    1  UNL1       -0.2994
     42 O          24.1476   70.8438   -3.0952 O.2     1  UNL1       -0.2751
     43 H          21.2949   71.9172   -2.6189 H       1  UNL1        0.1496
     44 C          20.0005   71.1171   -8.3505 C.3     1  UNL1        0.1693
     45 O          18.7069   71.6377   -8.6630 O.3     1  UNL1       -0.3794
     46 H          18.5301   71.4122   -9.5863 H       1  UNL1        0.2105
@<TRIPOS>BOND
     1    29    30    1
     2    29    28    1
     3    29    36    1
     4    30    31    1
     5    30    41    1
     6    31    32    1
     7    31    34    1
     8    32    33    1
     9    32    35    1
    10    33    44    1
    11    33    36    1
    12    44    45    1
    13    39    40    1
    14    39    41   am
    15    39    42    2
    16    41    43    1
    17    28    25    1
    18    34    37    1
    19    35    38    1
    20    45    46    1
    21    15    16   ar
    22    15    20   ar
    23    15     6    1
    24    16    17   ar
    25    16    21    2
    26    17    18   ar
    27    17    23    1
    28    18    19   ar
    29    18    22    2
    30    19    20   ar
    31     6     7    1
    32     6    11    1
    33     7     8    1
    34     7     9    1
    35     8    13    1
    36     9    10    1
    37     9    12    1
    38    10    11    1
    39    10     5    1
    40    12    14    1
    41     5     4    1
    42     4     1    1
    43     1     2    2
    44     1     3    1
    45     1    24    1
    46    24    25    1
    47    25    26    2
    48    25    27    1
@<TRIPOS>MOLECULE
UD1
 46 48 0 0 0
SMALL
GASTEIGER

@<TRIPOS>ATOM
      1 P          20.7552   71.4185   -1.2622 P.3     1  UNL1        0.2189
      2 O          20.5238   70.6015   -0.0508 O.2     1  UNL1       -0.5170
      3 O          21.3822   72.8400   -0.8393 O.3     1  UNL1       -0.4371
      4 O          19.3566   71.6555   -2.0242 O.3     1  UNL1       -0.3112
      5 C          18.8755   70.3689   -2.4159 C.3     1  UNL1        0.1811
      6 C          17.1484   70.4612   -5.5681 C.3     1  UNL1        0.2383
      7 C          16.9961   68.9971   -5.0848 C.3     1  UNL1        0.1895
      8 O          15.7708   68.4301   -5.5498 O.3     1  UNL1       -0.3779
      9 C          16.9790   69.1633   -3.5429 C.3     1  UNL1        0.1713
     10 C          17.6431   70.5336   -3.3067 C.3     1  UNL1        0.1764
     11 O          18.0335   71.0489   -4.5909 O.3     1  UNL1       -0.3308
     12 O          15.6359   69.1601   -3.0542 O.3     1  UNL1       -0.3794
     13 H          15.7377   67.5227   -5.2166 H       1  UNL1        0.2106
     14 H          15.2570   68.3014   -3.2846 H       1  UNL1        0.2105
     15 N          17.7482   70.5080   -6.9020 N.ar    1  UNL1       -0.2551
     16 C          16.9591   70.4609   -7.9894 C.ar    1  UNL1        0.3323
     17 N          17.4831   70.5062   -9.2286 N.ar    1  UNL1       -0.2743
     18 C          18.8179   70.5909   -9.3992 C.ar    1  UNL1        0.2626
     19 C          19.6607   70.6353   -8.2632 C.ar    1  UNL1        0.0795
     20 C          19.1082   70.5936   -7.0318 C.ar    1  UNL1        0.0869
     21 O          15.7533   70.3846   -7.8518 O.2     1  UNL1       -0.2464
     22 O          19.2930   70.6271  -10.5192 O.2     1  UNL1       -0.2670
     23 H          16.8986   70.4760  -10.0017 H       1  UNL1        0.1734
     24 O          21.7757   70.6505   -2.2408 O.3     1  UNL1       -0.2703
     25 P          23.1142   71.5412   -2.3082 P.3     1  UNL1        0.2208
     26 O          24.1637   70.7994   -3.0411 O.2     1  UNL1       -0.5170
     27 O          23.6252   71.8571   -0.8145 O.3     1  UNL1       -0.4371
     28 O          22.8025   72.9238   -3.0708 O.3     1  UNL1       -0.2865
     29 C          23.9404   73.2141   -3.8844 C.3     1  UNL1        0.2611
     30 C          24.3676   74.6651   -3.6560 C.3     1  UNL1        0.1582
     31 C          23.1995   75.5929   -4.0086 C.3     1  UNL1        0.1625
     32 C          22.7274   75.2682   -5.4298 C.3     1  UNL1        0.1686
     33 C          22.4210   73.7720   -5.5235 C.3     1  UNL1        0.1760
     34 O          23.6317   76.9532   -3.9431 O.3     1  UNL1       -0.3801
     35 O          21.5476   76.0184   -5.7246 O.3     1  UNL1       -0.3794
     36 O          23.6041   73.0200   -5.2564 O.3     1  UNL1       -0.3263
     37 H          22.8677   77.5004   -4.1712 H       1  UNL1        0.2105
     38 H          21.2848   75.7837   -6.6259 H       1  UNL1        0.2105
     39 C          23.8387   75.3518   -1.3794 C.2     1  UNL1        0.2231
     40 C          24.2183   75.5446    0.0667 C.3     1  UNL1        0.0946
     41 N          24.7357   74.8521   -2.2510 N.am    1  UNL1       -0.2994
     42 O          22.7255   75.6473   -1.7585 O.2     1  UNL1       -0.2751
     43 H          25.6267   74.6158   -1.9479 H       1  UNL1        0.1496
     44 C          21.9175   73.4429   -6.9304 C.3     1  UNL1        0.1693
     45 O          22.9645   72.8207   -7.6780 O.3     1  UNL1       -0.3794
     46 H          22.6067   72.6306   -8.5557 H       1  UNL1        0.2105
@<TRIPOS>BOND
     1    29    30    1
     2    29    28    1
     3    29    36    1
     4    30    31    1
     5    30    41    1
     6    31    32    1
     7    31    34    1
     8    32    33    1
     9    32    35    1
    10    33    44    1
    11    33    36    1
    12    44    45    1
    13    39    40    1
    14    39    41   am
    15    39    42    2
    16    41    43    1
    17    28    25    1
    18    34    37    1
    19    35    38    1
    20    45    46    1
    21    15    16   ar
    22    15    20   ar
    23    15     6    1
    24    16    17   ar
    25    16    21    2
    26    17    18   ar
    27    17    23    1
    28    18    19   ar
    29    18    22    2
    30    19    20   ar
    31     6     7    1
    32     6    11    1
    33     7     8    1
    34     7     9    1
    35     8    13    1
    36     9    10    1
    37     9    12    1
    38    10    11    1
    39    10     5    1
    40    12    14    1
    41     5     4    1
    42     4     1    1
    43     1     2    2
    44     1     3    1
    45     1    24    1
    46    24    25    1
    47    25    26    2
    48    25    27    1
@<TRIPOS>MOLECULE
UD1
 46 48 0 0 0
SMALL
GASTEIGER

@<TRIPOS>ATOM
      1 P          20.9911   72.1792   -1.9906 P.3     1  UNL1        0.2189
      2 O          20.9288   73.6283   -1.6991 O.2     1  UNL1       -0.5170
      3 O          21.3630   71.9592   -3.5416 O.3     1  UNL1       -0.4371
      4 O          19.5601   71.5083   -1.6825 O.3     1  UNL1       -0.3112
      5 C          19.4018   70.4291   -2.6047 C.3     1  UNL1        0.1811
      6 C          17.4249   70.4991   -5.6071 C.3     1  UNL1        0.2383
      7 C          17.2530   69.0588   -5.0627 C.3     1  UNL1        0.1895
      8 O          15.9711   68.5320   -5.4065 O.3     1  UNL1       -0.3779
      9 C          17.3705   69.2735   -3.5312 C.3     1  UNL1        0.1713
     10 C          18.1077   70.6199   -3.3974 C.3     1  UNL1        0.1764
     11 O          18.4113   71.0775   -4.7262 O.3     1  UNL1       -0.3308
     12 O          16.0735   69.3444   -2.9350 O.3     1  UNL1       -0.3794
     13 H          15.9283   67.6377   -5.0405 H       1  UNL1        0.2106
     14 H          15.6417   68.4964   -3.1040 H       1  UNL1        0.2105
     15 N          17.9136   70.4781   -6.9863 N.ar    1  UNL1       -0.2551
     16 C          17.0365   70.4119   -8.0030 C.ar    1  UNL1        0.3323
     17 N          17.4575   70.3952   -9.2816 N.ar    1  UNL1       -0.2743
     18 C          18.7754   70.4355   -9.5636 C.ar    1  UNL1        0.2626
     19 C          19.7099   70.4993   -8.5027 C.ar    1  UNL1        0.0795
     20 C          19.2600   70.5202   -7.2297 C.ar    1  UNL1        0.0869
     21 O          15.8447   70.3750   -7.7647 O.2     1  UNL1       -0.2464
     22 O          19.1573   70.4156  -10.7191 O.2     1  UNL1       -0.2670
     23 H          16.8107   70.3520  -10.0027 H       1  UNL1        0.1734
     24 O          22.1152   71.4936   -1.0657 O.3     1  UNL1       -0.2703
     25 P          21.5648   71.5390    0.4457 P.3     1  UNL1        0.2208
     26 O          21.3546   70.1589    0.9356 O.2     1  UNL1       -0.5170
     27 O          20.1689   72.3402    0.4854 O.3     1  UNL1       -0.4371
     28 O          22.6369   72.2848    1.3864 O.3     1  UNL1       -0.2865
     29 C          22.3025   73.6738    1.3753 C.3     1  UNL1        0.2611
     30 C          23.5449   74.4894    1.0129 C.3     1  UNL1        0.1582
     31 C          24.6474   74.2064    2.0396 C.3     1  UNL1        0.1625
     32 C          24.0871   74.4604    3.4431 C.3     1  UNL1        0.1686
     33 C          22.8053   73.6444    3.6232 C.3     1  UNL1        0.1760
     34 O          25.7585   75.0720    1.8000 O.3     1  UNL1       -0.3801
     35 O          25.0498   74.0628    4.4212 O.3     1  UNL1       -0.3794
     36 O          21.8318   74.0582    2.6653 O.3     1  UNL1       -0.3263
     37 H          26.4266   74.8601    2.4664 H       1  UNL1        0.2105
     38 H          24.6570   74.2387    5.2879 H       1  UNL1        0.2105
     39 C          24.0509   75.0245   -1.3091 C.2     1  UNL1        0.2231
     40 C          24.5280   74.6315   -2.6840 C.3     1  UNL1        0.0946
     41 N          24.0087   74.1083   -0.3227 N.am    1  UNL1       -0.2994
     42 O          23.7042   76.1657   -1.0909 O.2     1  UNL1       -0.2751
     43 H          24.2859   73.1949   -0.4971 H       1  UNL1        0.1496
     44 C          22.2552   73.8660    5.0337 C.3     1  UNL1        0.1693
     45 O          22.4879   72.6990    5.8249 O.3     1  UNL1       -0.3794
     46 H          22.1269   72.8799    6.7033 H       1  UNL1        0.2105
@<TRIPOS>BOND
     1    29    30    1
     2    29    28    1
     3    29    36    1
     4    30    31    1
     5    30    41    1
     6    31    32    1
     7    31    34    1
     8    32    33    1
     9    32    35    1
    10    33    44    1
    11    33    36    1
    12    44    45    1
    13    39    40    1
    14    39    41   am
    15    39    42    2
    16    41    43    1
    17    28    25    1
    18    34    37    1
    19    35    38    1
    20    45    46    1
    21    15    16   ar
    22    15    20   ar
    23    15     6    1
    24    16    17   ar
    25    16    21    2
    26    17    18   ar
    27    17    23    1
    28    18    19   ar
    29    18    22    2
    30    19    20   ar
    31     6     7    1
    32     6    11    1
    33     7     8    1
    34     7     9    1
    35     8    13    1
    36     9    10    1
    37     9    12    1
    38    10    11    1
    39    10     5    1
    40    12    14    1
    41     5     4    1
    42     4     1    1
    43     1     2    2
    44     1     3    1
    45     1    24    1
    46    24    25    1
    47    25    26    2
    48    25    27    1
@<TRIPOS>MOLECULE
UD1
 46 48 0 0 0
SMALL
GASTEIGER

@<TRIPOS>ATOM
      1 P          21.6120   71.0240    0.1005 P.3     1  UNL1        0.2189
      2 O          21.5702   69.9432    1.1099 O.2     1  UNL1       -0.5170
      3 O          23.0491   71.0248   -0.6257 O.3     1  UNL1       -0.4371
      4 O          21.3769   72.4430    0.8245 O.3     1  UNL1       -0.3112
      5 C          22.4749   72.6393    1.7168 C.3     1  UNL1        0.1811
      6 C          22.5375   73.5318    5.1991 C.3     1  UNL1        0.2383
      7 C          21.5469   74.5362    4.5587 C.3     1  UNL1        0.1895
      8 O          20.5371   74.9233    5.4913 O.3     1  UNL1       -0.3779
      9 C          20.9402   73.7018    3.4008 C.3     1  UNL1        0.1713
     10 C          21.9753   72.5857    3.1613 C.3     1  UNL1        0.1764
     11 O          23.0695   72.8133    4.0659 O.3     1  UNL1       -0.3308
     12 O          19.6803   73.1497    3.7886 O.3     1  UNL1       -0.3794
     13 H          19.9563   75.5461    5.0329 H       1  UNL1        0.2106
     14 H          19.0963   73.8952    3.9817 H       1  UNL1        0.2105
     15 N          23.6045   74.2367    5.9105 N.ar    1  UNL1       -0.2551
     16 C          23.4668   74.5066    7.2203 C.ar    1  UNL1        0.3323
     17 N          24.4337   75.1500    7.9009 N.ar    1  UNL1       -0.2743
     18 C          25.5595   75.5446    7.2724 C.ar    1  UNL1        0.2626
     19 C          25.7150   75.2722    5.8924 C.ar    1  UNL1        0.0795
     20 C          24.7317   74.6205    5.2353 C.ar    1  UNL1        0.0869
     21 O          22.4572   74.1571    7.8011 O.2     1  UNL1       -0.2464
     22 O          26.4323   76.1307    7.8857 O.2     1  UNL1       -0.2670
     23 H          24.3196   75.3323    8.8464 H       1  UNL1        0.1734
     24 O          20.4571   70.7820   -0.9932 O.3     1  UNL1       -0.2703
     25 P          20.9499   71.4864   -2.3534 P.3     1  UNL1        0.2208
     26 O          21.9850   70.6473   -2.9963 O.2     1  UNL1       -0.5170
     27 O          21.5675   72.9343   -2.0155 O.3     1  UNL1       -0.4371
     28 O          19.7006   71.6577   -3.3537 O.3     1  UNL1       -0.2865
     29 C          19.8003   70.6137   -4.3239 C.3     1  UNL1        0.2611
     30 C          19.6561   71.2107   -5.7249 C.3     1  UNL1        0.1582
     31 C          18.3013   71.9199   -5.8304 C.3     1  UNL1        0.1625
     32 C          17.1996   70.9351   -5.4247 C.3     1  UNL1        0.1686
     33 C          17.5277   70.3611   -4.0448 C.3     1  UNL1        0.1760
     34 O          18.0904   72.3517   -7.1760 O.3     1  UNL1       -0.3801
     35 O          15.9445   71.6161   -5.3745 O.3     1  UNL1       -0.3794
     36 O          18.7677   69.6566   -4.0980 O.3     1  UNL1       -0.3263
     37 H          17.2293   72.7915   -7.1965 H       1  UNL1        0.2105
     38 H          15.2810   70.9611   -5.1151 H       1  UNL1        0.2105
     39 C          21.3086   72.2593   -7.1754 C.2     1  UNL1        0.2231
     40 C          22.4182   73.2506   -7.4171 C.3     1  UNL1        0.0946
     41 N          20.7336   72.1739   -5.9603 N.am    1  UNL1       -0.2994
     42 O          20.9337   71.5377   -8.0748 O.2     1  UNL1       -0.2751
     43 H          21.0337   72.7511   -5.2403 H       1  UNL1        0.1496
     44 C          16.4166   69.4005   -3.6160 C.3     1  UNL1        0.1693
     45 O          15.8565   68.7732   -4.7714 O.3     1  UNL1       -0.3794
     46 H          15.1621   68.1781   -4.4578 H       1  UNL1        0.2105
@<TRIPOS>BOND
     1    29    30    1
     2    29    28    1
     3    29    36    1
     4    30    31    1
     5    30    41    1
     6    31    32    1
     7    31    34    1
     8    32    33    1
     9    32    35    1
    10    33    44    1
    11    33    36    1
    12    44    45    1
    13    39    40    1
    14    39    41   am
    15    39    42    2
    16    41    43    1
    17    28    25    1
    18    34    37    1
    19    35    38    1
    20    45    46    1
    21    15    16   ar
    22    15    20   ar
    23    15     6    1
    24    16    17   ar
    25    16    21    2
    26    17    18   ar
    27    17    23    1
    28    18    19   ar
    29    18    22    2
    30    19    20   ar
    31     6     7    1
    32     6    11    1
    33     7     8    1
    34     7     9    1
    35     8    13    1
    36     9    10    1
    37     9    12    1
    38    10    11    1
    39    10     5    1
    40    12    14    1
    41     5     4    1
    42     4     1    1
    43     1     2    2
    44     1     3    1
    45     1    24    1
    46    24    25    1
    47    25    26    2
    48    25    27    1
@<TRIPOS>MOLECULE
UD1
 46 48 0 0 0
SMALL
GASTEIGER

@<TRIPOS>ATOM
      1 P          23.2388   72.1200   -3.4762 P.3     1  UNL1        0.2189
      2 O          24.1897   71.0007   -3.2979 O.2     1  UNL1       -0.5170
      3 O          23.6178   72.9389   -4.8098 O.3     1  UNL1       -0.4371
      4 O          23.3218   73.1020   -2.2029 O.3     1  UNL1       -0.3112
      5 C          22.3111   72.6783   -1.2868 C.3     1  UNL1        0.1811
      6 C          24.3413   71.8659    1.5672 C.3     1  UNL1        0.2383
      7 C          22.9255   72.0988    2.1516 C.3     1  UNL1        0.1895
      8 O          22.7120   71.2926    3.3108 O.3     1  UNL1       -0.3779
      9 C          22.0122   71.6424    0.9843 C.3     1  UNL1        0.1713
     10 C          22.9214   71.7262   -0.2571 C.3     1  UNL1        0.1764
     11 O          24.1967   72.2282    0.1775 O.3     1  UNL1       -0.3308
     12 O          21.5639   70.3017    1.1945 O.3     1  UNL1       -0.3794
     13 H          21.8174   71.4841    3.6244 H       1  UNL1        0.2106
     14 H          21.0527   70.3035    2.0147 H       1  UNL1        0.2105
     15 N          25.3234   72.7280    2.2259 N.ar    1  UNL1       -0.2551
     16 C          25.1527   74.0615    2.2154 C.ar    1  UNL1        0.3323
     17 N          26.0379   74.8784    2.8165 N.ar    1  UNL1       -0.2743
     18 C          27.1220   74.3682    3.4349 C.ar    1  UNL1        0.2626
     19 C          27.3171   72.9666    3.4484 C.ar    1  UNL1        0.0795
     20 C          26.4108   72.1700    2.8422 C.ar    1  UNL1        0.0869
     21 O          24.1798   74.5366    1.6618 O.2     1  UNL1       -0.2464
     22 O          27.9255   75.1062    3.9746 O.2     1  UNL1       -0.2670
     23 H          25.8965   75.8375    2.8032 H       1  UNL1        0.1734
     24 O          21.7444   71.5386   -3.6088 O.3     1  UNL1       -0.2703
     25 P          21.0857   72.2394   -4.8989 P.3     1  UNL1        0.2208
     26 O          21.7710   71.7654   -6.1214 O.2     1  UNL1       -0.5170
     27 O          21.2433   73.8374   -4.7816 O.3     1  UNL1       -0.4371
     28 O          19.5235   71.8601   -4.9783 O.3     1  UNL1       -0.2865
     29 C          19.4504   70.4602   -5.2541 C.3     1  UNL1        0.2611
     30 C          18.3816   70.2106   -6.3196 C.3     1  UNL1        0.1582
     31 C          17.0337   70.7327   -5.8095 C.3     1  UNL1        0.1625
     32 C          16.7502   70.1031   -4.4415 C.3     1  UNL1        0.1686
     33 C          17.9410   70.3636   -3.5166 C.3     1  UNL1        0.1760
     34 O          16.0015   70.3724   -6.7293 O.3     1  UNL1       -0.3801
     35 O          15.5720   70.6865   -3.8818 O.3     1  UNL1       -0.3794
     36 O          19.1142   69.7587   -4.0591 O.3     1  UNL1       -0.3263
     37 H          15.1735   70.7200   -6.3702 H       1  UNL1        0.2105
     38 H          15.4311   70.2632   -3.0231 H       1  UNL1        0.2105
     39 C          18.9124   70.2234   -8.6971 C.2     1  UNL1        0.2231
     40 C          19.2871   70.9468   -9.9654 C.3     1  UNL1        0.0946
     41 N          18.7450   70.9128   -7.5521 N.am    1  UNL1       -0.2994
     42 O          18.7622   69.0203   -8.7070 O.2     1  UNL1       -0.2751
     43 H          18.8654   71.8757   -7.5438 H       1  UNL1        0.1496
     44 C          17.6540   69.7667   -2.1373 C.3     1  UNL1        0.1693
     45 O          16.9866   68.5124   -2.2901 O.3     1  UNL1       -0.3794
     46 H          16.8245   68.1715   -1.4001 H       1  UNL1        0.2105
@<TRIPOS>BOND
     1    29    30    1
     2    29    28    1
     3    29    36    1
     4    30    31    1
     5    30    41    1
     6    31    32    1
     7    31    34    1
     8    32    33    1
     9    32    35    1
    10    33    44    1
    11    33    36    1
    12    44    45    1
    13    39    40    1
    14    39    41   am
    15    39    42    2
    16    41    43    1
    17    28    25    1
    18    34    37    1
    19    35    38    1
    20    45    46    1
    21    15    16   ar
    22    15    20   ar
    23    15     6    1
    24    16    17   ar
    25    16    21    2
    26    17    18   ar
    27    17    23    1
    28    18    19   ar
    29    18    22    2
    30    19    20   ar
    31     6     7    1
    32     6    11    1
    33     7     8    1
    34     7     9    1
    35     8    13    1
    36     9    10    1
    37     9    12    1
    38    10    11    1
    39    10     5    1
    40    12    14    1
    41     5     4    1
    42     4     1    1
    43     1     2    2
    44     1     3    1
    45     1    24    1
    46    24    25    1
    47    25    26    2
    48    25    27    1
@<TRIPOS>MOLECULE
UD1
 46 48 0 0 0
SMALL
GASTEIGER

@<TRIPOS>ATOM
      1 P          22.0946   71.2260   -0.1688 P.3     1  UNL1        0.2189
      2 O          21.1858   70.3613    0.6155 O.2     1  UNL1       -0.5170
      3 O          23.6175   70.7610    0.0708 O.3     1  UNL1       -0.4371
      4 O          21.9207   72.7552    0.3045 O.3     1  UNL1       -0.3112
      5 C          22.9941   73.0345    1.2046 C.3     1  UNL1        0.1811
      6 C          22.9738   73.3148    4.7891 C.3     1  UNL1        0.2383
      7 C          21.7092   74.0845    4.3324 C.3     1  UNL1        0.1895
      8 O          20.6786   74.0045    5.3176 O.3     1  UNL1       -0.3779
      9 C          21.3068   73.3160    3.0469 C.3     1  UNL1        0.1713
     10 C          22.6021   72.6001    2.6177 C.3     1  UNL1        0.1764
     11 O          23.6306   72.9783    3.5485 O.3     1  UNL1       -0.3308
     12 O          20.2751   72.3689    3.3324 O.3     1  UNL1       -0.3794
     13 H          19.9234   74.5017    4.9740 H       1  UNL1        0.2106
     14 H          19.5145   72.8724    3.6518 H       1  UNL1        0.2105
     15 N          23.8318   74.1676    5.6125 N.ar    1  UNL1       -0.2551
     16 C          23.5926   74.2787    6.9308 C.ar    1  UNL1        0.3323
     17 N          24.3678   75.0528    7.7131 N.ar    1  UNL1       -0.2743
     18 C          25.3980   75.7407    7.1807 C.ar    1  UNL1        0.2626
     19 C          25.6575   75.6375    5.7933 C.ar    1  UNL1        0.0795
     20 C          24.8674   74.8497    5.0328 C.ar    1  UNL1        0.0869
     21 O          22.6672   73.6644    7.4256 O.2     1  UNL1       -0.2464
     22 O          26.0967   76.4446    7.8863 O.2     1  UNL1       -0.2670
     23 H          24.1837   75.1175    8.6629 H       1  UNL1        0.1734
     24 O          21.7350   71.1041   -1.7323 O.3     1  UNL1       -0.2703
     25 P          20.1771   71.4785   -1.8815 P.3     1  UNL1        0.2208
     26 O          19.8190   72.5070   -0.8801 O.2     1  UNL1       -0.5170
     27 O          19.2825   70.1617   -1.6409 O.3     1  UNL1       -0.4371
     28 O          19.9006   72.0504   -3.3604 O.3     1  UNL1       -0.2865
     29 C          20.9081   71.5019   -4.2120 C.3     1  UNL1        0.2611
     30 C          21.6444   72.6398   -4.9211 C.3     1  UNL1        0.1582
     31 C          20.6361   73.4594   -5.7342 C.3     1  UNL1        0.1625
     32 C          19.8618   72.5102   -6.6548 C.3     1  UNL1        0.1686
     33 C          19.2573   71.3836   -5.8143 C.3     1  UNL1        0.1760
     34 O          21.3303   74.4316   -6.5179 O.3     1  UNL1       -0.3801
     35 O          18.8179   73.2296   -7.3140 O.3     1  UNL1       -0.3794
     36 O          20.2990   70.6459   -5.1762 O.3     1  UNL1       -0.3263
     37 H          20.6596   74.9233   -7.0115 H       1  UNL1        0.2105
     38 H          18.3565   72.5957   -7.8814 H       1  UNL1        0.2105
     39 C          23.6051   73.3706   -3.6738 C.2     1  UNL1        0.2231
     40 C          24.2677   74.2569   -2.6502 C.3     1  UNL1        0.0946
     41 N          22.2887   73.5009   -3.9272 N.am    1  UNL1       -0.2994
     42 O          24.2571   72.5394   -4.2690 O.2     1  UNL1       -0.2751
     43 H          21.7667   74.1658   -3.4509 H       1  UNL1        0.1496
     44 C          18.4544   70.4476   -6.7201 C.3     1  UNL1        0.1693
     45 O          19.0005   70.4776   -8.0403 O.3     1  UNL1       -0.3794
     46 H          18.4671   69.8763   -8.5775 H       1  UNL1        0.2105
@<TRIPOS>BOND
     1    29    30    1
     2    29    28    1
     3    29    36    1
     4    30    31    1
     5    30    41    1
     6    31    32    1
     7    31    34    1
     8    32    33    1
     9    32    35    1
    10    33    44    1
    11    33    36    1
    12    44    45    1
    13    39    40    1
    14    39    41   am
    15    39    42    2
    16    41    43    1
    17    28    25    1
    18    34    37    1
    19    35    38    1
    20    45    46    1
    21    15    16   ar
    22    15    20   ar
    23    15     6    1
    24    16    17   ar
    25    16    21    2
    26    17    18   ar
    27    17    23    1
    28    18    19   ar
    29    18    22    2
    30    19    20   ar
    31     6     7    1
    32     6    11    1
    33     7     8    1
    34     7     9    1
    35     8    13    1
    36     9    10    1
    37     9    12    1
    38    10    11    1
    39    10     5    1
    40    12    14    1
    41     5     4    1
    42     4     1    1
    43     1     2    2
    44     1     3    1
    45     1    24    1
    46    24    25    1
    47    25    26    2
    48    25    27    1
@<TRIPOS>MOLECULE
UD1
 46 48 0 0 0
SMALL
GASTEIGER

@<TRIPOS>ATOM
      1 P          21.4363   71.2761    0.1239 P.3     1  UNL1        0.2189
      2 O          20.3646   72.1880    0.5806 O.2     1  UNL1       -0.5170
      3 O          21.7477   70.1947    1.2755 O.3     1  UNL1       -0.4371
      4 O          22.7679   72.1267   -0.1863 O.3     1  UNL1       -0.3112
      5 C          23.5242   72.1680    1.0247 C.3     1  UNL1        0.1811
      6 C          23.1179   74.8453    3.3899 C.3     1  UNL1        0.2383
      7 C          24.5415   74.2986    3.6632 C.3     1  UNL1        0.1895
      8 O          25.4057   75.3346    4.1313 O.3     1  UNL1       -0.3779
      9 C          24.9770   73.8075    2.2580 C.3     1  UNL1        0.1713
     10 C          23.6491   73.6163    1.5001 C.3     1  UNL1        0.1764
     11 O          22.5838   73.9240    2.4154 O.3     1  UNL1       -0.3308
     12 O          25.7908   74.7905    1.6144 O.3     1  UNL1       -0.3794
     13 H          26.2714   74.9305    4.2821 H       1  UNL1        0.2106
     14 H          26.5755   74.9082    2.1663 H       1  UNL1        0.2105
     15 N          22.3121   74.8293    4.6113 N.ar    1  UNL1       -0.2551
     16 C          22.1046   73.6687    5.2574 C.ar    1  UNL1        0.3323
     17 N          21.3708   73.6249    6.3852 N.ar    1  UNL1       -0.2743
     18 C          20.8211   74.7512    6.8824 C.ar    1  UNL1        0.2626
     19 C          21.0266   75.9788    6.2089 C.ar    1  UNL1        0.0795
     20 C          21.7713   75.9951    5.0826 C.ar    1  UNL1        0.0869
     21 O          22.5938   72.6445    4.8214 O.2     1  UNL1       -0.2464
     22 O          20.1535   74.7120    7.8994 O.2     1  UNL1       -0.2670
     23 H          21.2353   72.7798    6.8409 H       1  UNL1        0.1734
     24 O          20.9614   70.5166   -1.2126 O.3     1  UNL1       -0.2703
     25 P          21.3257   71.4798   -2.4491 P.3     1  UNL1        0.2208
     26 O          22.7809   71.4197   -2.7090 O.2     1  UNL1       -0.5170
     27 O          20.9070   72.9931   -2.0929 O.3     1  UNL1       -0.4371
     28 O          20.5261   70.9979   -3.7602 O.3     1  UNL1       -0.2865
     29 C          19.7840   72.1245   -4.2305 C.3     1  UNL1        0.2611
     30 C          18.3967   71.6632   -4.6806 C.3     1  UNL1        0.1582
     31 C          18.5518   70.6162   -5.7894 C.3     1  UNL1        0.1625
     32 C          19.4351   71.2017   -6.8962 C.3     1  UNL1        0.1686
     33 C          20.7456   71.6951   -6.2793 C.3     1  UNL1        0.1760
     34 O          17.2669   70.2878   -6.3210 O.3     1  UNL1       -0.3801
     35 O          19.7133   70.1931   -7.8693 O.3     1  UNL1       -0.3794
     36 O          20.4734   72.7220   -5.3265 O.3     1  UNL1       -0.3263
     37 H          17.4113   69.6278   -7.0130 H       1  UNL1        0.2105
     38 H          20.2711   70.6031   -8.5456 H       1  UNL1        0.2105
     39 C          17.7835   69.7530   -3.2988 C.2     1  UNL1        0.2231
     40 C          17.0495   69.1463   -2.1302 C.3     1  UNL1        0.0946
     41 N          17.6843   71.0734   -3.5452 N.am    1  UNL1       -0.2994
     42 O          18.4630   69.0521   -4.0179 O.2     1  UNL1       -0.2751
     43 H          17.1403   71.6345   -2.9700 H       1  UNL1        0.1496
     44 C          21.6487   72.2523   -7.3816 C.3     1  UNL1        0.1693
     45 O          23.0008   72.2829   -6.9201 O.3     1  UNL1       -0.3794
     46 H          23.5351   72.6397   -7.6425 H       1  UNL1        0.2105
@<TRIPOS>BOND
     1    29    30    1
     2    29    28    1
     3    29    36    1
     4    30    31    1
     5    30    41    1
     6    31    32    1
     7    31    34    1
     8    32    33    1
     9    32    35    1
    10    33    44    1
    11    33    36    1
    12    44    45    1
    13    39    40    1
    14    39    41   am
    15    39    42    2
    16    41    43    1
    17    28    25    1
    18    34    37    1
    19    35    38    1
    20    45    46    1
    21    15    16   ar
    22    15    20   ar
    23    15     6    1
    24    16    17   ar
    25    16    21    2
    26    17    18   ar
    27    17    23    1
    28    18    19   ar
    29    18    22    2
    30    19    20   ar
    31     6     7    1
    32     6    11    1
    33     7     8    1
    34     7     9    1
    35     8    13    1
    36     9    10    1
    37     9    12    1
    38    10    11    1
    39    10     5    1
    40    12    14    1
    41     5     4    1
    42     4     1    1
    43     1     2    2
    44     1     3    1
    45     1    24    1
    46    24    25    1
    47    25    26    2
    48    25    27    1
@<TRIPOS>MOLECULE
UD1
 46 48 0 0 0
SMALL
GASTEIGER

@<TRIPOS>ATOM
      1 P          16.3021   69.7709   -2.7835 P.3     1  UNL1        0.2189
      2 O          15.8136   69.0796   -3.9969 O.2     1  UNL1       -0.5170
      3 O          16.9145   68.6895   -1.7596 O.3     1  UNL1       -0.4371
      4 O          15.0786   70.5439   -2.0777 O.3     1  UNL1       -0.3112
      5 C          14.5900   69.6884   -1.0434 C.3     1  UNL1        0.1811
      6 C          11.0815   68.9341   -0.8216 C.3     1  UNL1        0.2383
      7 C          11.6293   68.6548    0.6005 C.3     1  UNL1        0.1895
      8 O          10.6318   68.9062    1.5909 O.3     1  UNL1       -0.3779
      9 C          12.7884   69.6793    0.7099 C.3     1  UNL1        0.1713
     10 C          13.1254   70.0212   -0.7543 C.3     1  UNL1        0.1764
     11 O          12.2687   69.2241   -1.5897 O.3     1  UNL1       -0.3308
     12 O          12.3604   70.8454    1.4170 O.3     1  UNL1       -0.3794
     13 H          11.0344   68.7139    2.4491 H       1  UNL1        0.2106
     14 H          12.1076   70.5570    2.3041 H       1  UNL1        0.2105
     15 N          10.3966   67.7561   -1.3550 N.ar    1  UNL1       -0.2551
     16 C           9.3391   67.9124   -2.1702 C.ar    1  UNL1        0.3323
     17 N           8.6923   66.8468   -2.6786 N.ar    1  UNL1       -0.2743
     18 C           9.0927   65.5973   -2.3683 C.ar    1  UNL1        0.2626
     19 C          10.2009   65.4183   -1.5064 C.ar    1  UNL1        0.0795
     20 C          10.8347   66.5046   -1.0148 C.ar    1  UNL1        0.0869
     21 O           8.9660   69.0330   -2.4594 O.2     1  UNL1       -0.2464
     22 O           8.5058   64.6331   -2.8236 O.2     1  UNL1       -0.2670
     23 H           7.9344   66.9781   -3.2689 H       1  UNL1        0.1734
     24 O          17.4421   70.8305   -3.1917 O.3     1  UNL1       -0.2703
     25 P          18.8482   70.0515   -3.1192 P.3     1  UNL1        0.2208
     26 O          18.6294   68.6129   -3.3865 O.2     1  UNL1       -0.5170
     27 O          19.4880   70.2328   -1.6529 O.3     1  UNL1       -0.4371
     28 O          19.8549   70.6549   -4.2206 O.3     1  UNL1       -0.2865
     29 C          19.7362   72.0772   -4.1556 C.3     1  UNL1        0.2611
     30 C          19.4620   72.6256   -5.5570 C.3     1  UNL1        0.1582
     31 C          20.6108   72.2205   -6.4874 C.3     1  UNL1        0.1625
     32 C          21.9333   72.6710   -5.8582 C.3     1  UNL1        0.1686
     33 C          22.0224   72.1164   -4.4348 C.3     1  UNL1        0.1760
     34 O          20.4423   72.8506   -7.7586 O.3     1  UNL1       -0.3801
     35 O          23.0254   72.1755   -6.6349 O.3     1  UNL1       -0.3794
     36 O          20.9484   72.6312   -3.6487 O.3     1  UNL1       -0.3263
     37 H          21.1845   72.5686   -8.3108 H       1  UNL1        0.2105
     38 H          23.8364   72.4809   -6.2041 H       1  UNL1        0.2105
     39 C          18.2130   70.9684   -6.8329 C.2     1  UNL1        0.2231
     40 C          16.9173   70.4000   -7.3528 C.3     1  UNL1        0.0946
     41 N          18.2035   72.0728   -6.0619 N.am    1  UNL1       -0.2994
     42 O          19.2646   70.4318   -7.1092 O.2     1  UNL1       -0.2751
     43 H          17.3621   72.5025   -5.8408 H       1  UNL1        0.1496
     44 C          23.3547   72.5338   -3.8087 C.3     1  UNL1        0.1693
     45 O          24.0596   71.3712   -3.3688 O.3     1  UNL1       -0.3794
     46 H          24.8907   71.6777   -2.9815 H       1  UNL1        0.2105
@<TRIPOS>BOND
     1    29    30    1
     2    29    28    1
     3    29    36    1
     4    30    31    1
     5    30    41    1
     6    31    32    1
     7    31    34    1
     8    32    33    1
     9    32    35    1
    10    33    44    1
    11    33    36    1
    12    44    45    1
    13    39    40    1
    14    39    41   am
    15    39    42    2
    16    41    43    1
    17    28    25    1
    18    34    37    1
    19    35    38    1
    20    45    46    1
    21    15    16   ar
    22    15    20   ar
    23    15     6    1
    24    16    17   ar
    25    16    21    2
    26    17    18   ar
    27    17    23    1
    28    18    19   ar
    29    18    22    2
    30    19    20   ar
    31     6     7    1
    32     6    11    1
    33     7     8    1
    34     7     9    1
    35     8    13    1
    36     9    10    1
    37     9    12    1
    38    10    11    1
    39    10     5    1
    40    12    14    1
    41     5     4    1
    42     4     1    1
    43     1     2    2
    44     1     3    1
    45     1    24    1
    46    24    25    1
    47    25    26    2
    48    25    27    1
