@<TRIPOS>MOLECULE
*****
 43 45 0 0 0
SMALL
GASTEIGER

@<TRIPOS>ATOM
      1 P          22.9632   71.5495   -2.5897 P.3     1  UNL1        0.2189
      2 O          23.1123   73.0887   -2.1129 O.co2   1  UNL1       -0.4371
      3 O          24.2169   70.9310   -3.1354 O.2     1  UNL1       -0.5170
      4 O          21.6968   71.5754   -3.5964 O.3     1  UNL1       -0.3112
      5 C          20.8370   70.4511   -3.6305 C.3     1  UNL1        0.1811
      6 O          18.9258   71.5705   -4.5640 O.3     1  UNL1       -0.3308
      7 O          17.3334   70.2783   -2.3763 O.3     1  UNL1       -0.3794
      8 O          16.7787   68.6994   -4.5294 O.3     1  UNL1       -0.3779
      9 C          18.4435   69.7627   -3.1115 C.3     1  UNL1        0.1713
     10 C          18.0137   69.3844   -4.5131 C.3     1  UNL1        0.1895
     11 C          19.4080   70.9114   -3.3731 C.3     1  UNL1        0.1764
     12 C          17.9400   70.7391   -5.1968 C.3     1  UNL1        0.2383
     13 H          16.7032   69.5624   -2.1972 H       1  UNL1        0.2105
     14 H          16.8779   67.8435   -4.0827 H       1  UNL1        0.2106
     15 O          16.0263   70.1381   -7.1849 O.2     1  UNL1       -0.2464
     16 O          19.1551   70.4643  -10.5536 O.2     1  UNL1       -0.2670
     17 N          18.2273   70.6605   -6.6011 N.ar    1  UNL1       -0.2551
     18 N          17.5866   70.3002   -8.8607 N.ar    1  UNL1       -0.2743
     19 C          17.1939   70.3514   -7.5168 C.ar    1  UNL1        0.3323
     20 C          19.5193   70.8897   -7.0586 C.ar    1  UNL1        0.0869
     21 C          19.8784   70.8374   -8.3428 C.ar    1  UNL1        0.0795
     22 C          18.8587   70.5199   -9.3639 C.ar    1  UNL1        0.2626
     23 H          16.8848   70.0847   -9.5167 H       1  UNL1        0.1734
     24 O          22.3685   70.8187   -1.2763 O.3     1  UNL1       -0.2703
     25 P          21.6815   71.4244    0.0560 P.3     1  UNL1        0.2208
     26 O          21.1890   70.1034    0.8514 O.co2   1  UNL1       -0.4371
     27 O          20.5954   72.4257   -0.2121 O.2     1  UNL1       -0.5170
     28 O          22.9133   71.9906    0.9304 O.3     1  UNL1       -0.2858
     29 O          24.6258   71.3600    2.4399 O.3     1  UNL1       -0.3226
     30 O          22.5427   74.1582    4.6532 O.3     1  UNL1       -0.3794
     31 O          21.1149   72.1822    3.0435 O.3     1  UNL1       -0.3775
     32 O          25.0992   74.8535    3.4566 O.3     1  UNL1       -0.3792
     33 C          23.0651   73.5623    3.4658 C.3     1  UNL1        0.1718
     34 C          22.5106   72.1452    3.3178 C.3     1  UNL1        0.1968
     35 C          24.5903   73.5273    3.5857 C.3     1  UNL1        0.1723
     36 C          23.2202   71.3951    2.1897 C.3     1  UNL1        0.2706
     37 C          25.2148   72.6572    2.4988 C.3     1  UNL1        0.1830
     38 H          21.5746   74.1912    4.5997 H       1  UNL1        0.2105
     39 H          20.6584   72.6570    3.7552 H       1  UNL1        0.2106
     40 H          24.7094   75.4176    4.1426 H       1  UNL1        0.2106
     41 O          26.9503   71.0794    2.4948 O.co2   1  UNL1       -0.5466
     42 O          27.4388   73.1610    3.2869 O.co2   1  UNL1       -0.5466
     43 C          26.6455   72.3621    2.8122 C.2     1  UNL1        0.0799
@<TRIPOS>UNITY_ATOM_ATTR
2 1
charge -1
26 1
charge -1
41 1
charge -1
@<TRIPOS>BOND
     1     1     4    1
     2     1    24    1
     3     1     2    1
     4     1     3    2
     5    25    28    1
     6    25    24    1
     7    25    26    1
     8    25    27    2
     9     6    11    1
    10     6    12    1
    11    29    36    1
    12    29    37    1
    13     7     9    1
    14     7    13    1
    15     8    10    1
    16     8    14    1
    17     4     5    1
    18    28    36    1
    19    30    33    1
    20    30    38    1
    21    31    34    1
    22    31    39    1
    23    32    35    1
    24    32    40    1
    25    41    43   ar
    26    15    19    2
    27    42    43   ar
    28    16    22    2
    29    17    12    1
    30    17    19   ar
    31    17    20   ar
    32    18    19   ar
    33    18    22   ar
    34    18    23    1
    35     9    10    1
    36     9    11    1
    37    10    12    1
    38    11     5    1
    39    33    34    1
    40    33    35    1
    41    34    36    1
    42    35    37    1
    43    37    43    1
    44    20    21   ar
    45    21    22   ar
@<TRIPOS>MOLECULE
*****
 43 45 0 0 0
SMALL
GASTEIGER

@<TRIPOS>ATOM
      1 P          22.6201   71.3405   -2.7450 P.3     1  UNL1        0.2189
      2 O          24.0807   71.4149   -3.4378 O.co2   1  UNL1       -0.4371
      3 O          21.7503   70.2137   -3.2199 O.2     1  UNL1       -0.5170
      4 O          22.0169   72.8279   -2.9494 O.3     1  UNL1       -0.3112
      5 C          20.7840   72.9698   -3.6307 C.3     1  UNL1        0.1811
      6 O          20.6427   71.8980   -5.7776 O.3     1  UNL1       -0.3308
      7 O          20.9387   74.6387   -6.9577 O.3     1  UNL1       -0.3794
      8 O          18.2571   74.1880   -7.1630 O.3     1  UNL1       -0.3779
      9 C          20.2517   74.2342   -5.7732 C.3     1  UNL1        0.1713
     10 C          18.9607   73.5289   -6.1309 C.3     1  UNL1        0.1895
     11 C          21.0555   73.1169   -5.1223 C.3     1  UNL1        0.1764
     12 C          19.4570   72.1546   -6.5467 C.3     1  UNL1        0.2383
     13 H          20.4439   75.3521   -7.3912 H       1  UNL1        0.2105
     14 H          17.9621   75.0576   -6.8489 H       1  UNL1        0.2106
     15 O          17.4659   71.3231   -8.3691 O.2     1  UNL1       -0.2464
     16 O          15.8233   68.1820   -5.4231 O.2     1  UNL1       -0.2670
     17 N          18.4959   71.1216   -6.2817 N.ar    1  UNL1       -0.2551
     18 N          16.6491   69.7602   -6.8997 N.ar    1  UNL1       -0.2743
     19 C          17.5375   70.7802   -7.2650 C.ar    1  UNL1        0.3323
     20 C          18.5098   70.4580   -5.0610 C.ar    1  UNL1        0.0869
     21 C          17.6566   69.4877   -4.7272 C.ar    1  UNL1        0.0795
     22 C          16.6232   69.0714   -5.6978 C.ar    1  UNL1        0.2626
     23 H          15.9713   69.5064   -7.5672 H       1  UNL1        0.1734
     24 O          22.9685   71.3032   -1.1670 O.3     1  UNL1       -0.2703
     25 P          22.0135   71.1399    0.1272 P.3     1  UNL1        0.2208
     26 O          22.8815   70.1905    1.1099 O.co2   1  UNL1       -0.4371
     27 O          20.6403   70.6181   -0.1827 O.2     1  UNL1       -0.5170
     28 O          22.0349   72.5884    0.8370 O.3     1  UNL1       -0.2858
     29 O          23.7382   73.6527    2.0921 O.3     1  UNL1       -0.3226
     30 O          20.3235   75.1037    3.9095 O.3     1  UNL1       -0.3794
     31 O          20.5135   72.2901    3.1463 O.3     1  UNL1       -0.3775
     32 O          21.8478   76.7973    2.1042 O.3     1  UNL1       -0.3792
     33 C          21.1178   74.6180    2.8273 C.3     1  UNL1        0.1718
     34 C          21.6044   73.2037    3.1440 C.3     1  UNL1        0.1968
     35 C          22.3082   75.5638    2.6527 C.3     1  UNL1        0.1723
     36 C          22.6407   72.7393    2.1196 C.3     1  UNL1        0.2706
     37 C          23.3559   74.9732    1.7136 C.3     1  UNL1        0.1830
     38 H          19.5608   74.5182    4.0391 H       1  UNL1        0.2105
     39 H          19.8519   72.5788    3.7939 H       1  UNL1        0.2106
     40 H          21.1802   77.1836    2.6924 H       1  UNL1        0.2106
     41 O          24.5918   76.8471    1.0334 O.co2   1  UNL1       -0.5466
     42 O          25.6021   75.4046    2.4818 O.co2   1  UNL1       -0.5466
     43 C          24.6391   75.7331    1.8053 C.2     1  UNL1        0.0799
@<TRIPOS>UNITY_ATOM_ATTR
2 1
charge -1
26 1
charge -1
41 1
charge -1
@<TRIPOS>BOND
     1     1     4    1
     2     1    24    1
     3     1     2    1
     4     1     3    2
     5    25    28    1
     6    25    24    1
     7    25    26    1
     8    25    27    2
     9     6    11    1
    10     6    12    1
    11    29    36    1
    12    29    37    1
    13     7     9    1
    14     7    13    1
    15     8    10    1
    16     8    14    1
    17     4     5    1
    18    28    36    1
    19    30    33    1
    20    30    38    1
    21    31    34    1
    22    31    39    1
    23    32    35    1
    24    32    40    1
    25    41    43   ar
    26    15    19    2
    27    42    43   ar
    28    16    22    2
    29    17    12    1
    30    17    19   ar
    31    17    20   ar
    32    18    19   ar
    33    18    22   ar
    34    18    23    1
    35     9    10    1
    36     9    11    1
    37    10    12    1
    38    11     5    1
    39    33    34    1
    40    33    35    1
    41    34    36    1
    42    35    37    1
    43    37    43    1
    44    20    21   ar
    45    21    22   ar
@<TRIPOS>MOLECULE
*****
 43 45 0 0 0
SMALL
GASTEIGER

@<TRIPOS>ATOM
      1 P          21.3115   71.5940   -2.9034 P.3     1  UNL1        0.2189
      2 O          21.5807   72.7489   -4.0045 O.co2   1  UNL1       -0.4371
      3 O          22.0224   70.2973   -3.1585 O.2     1  UNL1       -0.5170
      4 O          19.6981   71.5060   -2.8192 O.3     1  UNL1       -0.3112
      5 C          19.0533   70.3713   -3.3680 C.3     1  UNL1        0.1811
      6 O          17.3907   71.3775   -4.7826 O.3     1  UNL1       -0.3308
      7 O          15.3779   69.7765   -3.2408 O.3     1  UNL1       -0.3794
      8 O          15.6652   68.3252   -5.5315 O.3     1  UNL1       -0.3779
      9 C          16.7062   69.4251   -3.6291 C.3     1  UNL1        0.1713
     10 C          16.7552   69.1187   -5.1110 C.3     1  UNL1        0.1895
     11 C          17.5699   70.6753   -3.5335 C.3     1  UNL1        0.1764
     12 C          16.7358   70.5098   -5.7214 C.3     1  UNL1        0.2383
     13 H          14.8073   68.9934   -3.2939 H       1  UNL1        0.2105
     14 H          15.7231   67.4501   -5.1159 H       1  UNL1        0.2106
     15 O          15.4725   70.5559   -8.2470 O.2     1  UNL1       -0.2464
     16 O          19.5085   70.7326  -10.4659 O.2     1  UNL1       -0.2670
     17 N          17.4324   70.5677   -6.9753 N.ar    1  UNL1       -0.2551
     18 N          17.4839   70.6428   -9.3498 N.ar    1  UNL1       -0.2743
     19 C          16.7031   70.5864   -8.1877 C.ar    1  UNL1        0.3323
     20 C          18.8213   70.6070   -6.9960 C.ar    1  UNL1        0.0869
     21 C          19.5516   70.6608   -8.1115 C.ar    1  UNL1        0.0795
     22 C          18.8670   70.6829   -9.4208 C.ar    1  UNL1        0.2626
     23 H          16.9985   70.6548  -10.2063 H       1  UNL1        0.1734
     24 O          21.7090   72.3178   -1.5138 O.3     1  UNL1       -0.2703
     25 P          21.1196   72.1415   -0.0187 P.3     1  UNL1        0.2208
     26 O          20.8962   70.5430    0.1047 O.co2   1  UNL1       -0.4371
     27 O          19.8928   72.9608    0.2601 O.2     1  UNL1       -0.5170
     28 O          22.3686   72.4543    0.9531 O.3     1  UNL1       -0.2858
     29 O          24.1419   73.4187   -0.2856 O.3     1  UNL1       -0.3226
     30 O          25.8264   73.0833    3.4718 O.3     1  UNL1       -0.3794
     31 O          24.1956   70.9186    2.3814 O.3     1  UNL1       -0.3775
     32 O          24.9391   75.6741    2.4965 O.3     1  UNL1       -0.3792
     33 C          24.7712   73.2708    2.5287 C.3     1  UNL1        0.1718
     34 C          24.6596   72.0365    1.6334 C.3     1  UNL1        0.1968
     35 C          25.1003   74.5083    1.6907 C.3     1  UNL1        0.1723
     36 C          23.7005   72.2898    0.4695 C.3     1  UNL1        0.2706
     37 C          24.1795   74.6216    0.4791 C.3     1  UNL1        0.1830
     38 H          25.6390   72.3021    4.0158 H       1  UNL1        0.2105
     39 H          24.7994   70.7523    3.1218 H       1  UNL1        0.2106
     40 H          25.5196   75.6145    3.2712 H       1  UNL1        0.2106
     41 O          24.8673   75.0607   -1.7199 O.co2   1  UNL1       -0.5466
     42 O          24.9596   76.7898   -0.2363 O.co2   1  UNL1       -0.5466
     43 C          24.7071   75.6229   -0.4963 C.2     1  UNL1        0.0799
@<TRIPOS>UNITY_ATOM_ATTR
2 1
charge -1
26 1
charge -1
41 1
charge -1
@<TRIPOS>BOND
     1     1     4    1
     2     1    24    1
     3     1     2    1
     4     1     3    2
     5    25    28    1
     6    25    24    1
     7    25    26    1
     8    25    27    2
     9     6    11    1
    10     6    12    1
    11    29    36    1
    12    29    37    1
    13     7     9    1
    14     7    13    1
    15     8    10    1
    16     8    14    1
    17     4     5    1
    18    28    36    1
    19    30    33    1
    20    30    38    1
    21    31    34    1
    22    31    39    1
    23    32    35    1
    24    32    40    1
    25    41    43   ar
    26    15    19    2
    27    42    43   ar
    28    16    22    2
    29    17    12    1
    30    17    19   ar
    31    17    20   ar
    32    18    19   ar
    33    18    22   ar
    34    18    23    1
    35     9    10    1
    36     9    11    1
    37    10    12    1
    38    11     5    1
    39    33    34    1
    40    33    35    1
    41    34    36    1
    42    35    37    1
    43    37    43    1
    44    20    21   ar
    45    21    22   ar
@<TRIPOS>MOLECULE
*****
 43 45 0 0 0
SMALL
GASTEIGER

@<TRIPOS>ATOM
      1 P          19.9736   72.0345   -1.2307 P.3     1  UNL1        0.2189
      2 O          19.6106   70.4593   -1.1544 O.co2   1  UNL1       -0.4371
      3 O          19.1131   72.9248   -0.3829 O.2     1  UNL1       -0.5170
      4 O          19.9709   72.3575   -2.8161 O.3     1  UNL1       -0.3112
      5 C          19.4377   71.3905   -3.7022 C.3     1  UNL1        0.1811
      6 O          17.6340   72.0303   -5.1565 O.3     1  UNL1       -0.3308
      7 O          15.8165   70.6824   -3.1889 O.3     1  UNL1       -0.3794
      8 O          16.0329   68.8224   -5.1713 O.3     1  UNL1       -0.3779
      9 C          17.1338   70.3162   -3.6001 C.3     1  UNL1        0.1713
     10 C          17.1029   69.7270   -4.9944 C.3     1  UNL1        0.1895
     11 C          17.9323   71.5951   -3.8122 C.3     1  UNL1        0.1764
     12 C          16.9677   70.9690   -5.8587 C.3     1  UNL1        0.2383
     13 H          15.2873   69.8814   -3.0471 H       1  UNL1        0.2105
     14 H          16.1655   68.0491   -4.6001 H       1  UNL1        0.2106
     15 O          15.5353   70.5837   -8.2621 O.2     1  UNL1       -0.2464
     16 O          19.4095   70.3628  -10.7493 O.2     1  UNL1       -0.2670
     17 N          17.5770   70.8080   -7.1486 N.ar    1  UNL1       -0.2551
     18 N          17.4663   70.4730   -9.4984 N.ar    1  UNL1       -0.2743
     19 C          16.7669   70.6200   -8.2933 C.ar    1  UNL1        0.3323
     20 C          18.9608   70.8387   -7.2707 C.ar    1  UNL1        0.0869
     21 C          19.6132   70.6972   -8.4262 C.ar    1  UNL1        0.0795
     22 C          18.8410   70.4958   -9.6698 C.ar    1  UNL1        0.2626
     23 H          16.9238   70.3389  -10.3090 H       1  UNL1        0.1734
     24 O          21.5459   72.0631   -0.8566 O.3     1  UNL1       -0.2703
     25 P          22.3657   71.3475    0.3390 P.3     1  UNL1        0.2208
     26 O          23.7785   70.9704   -0.3553 O.co2   1  UNL1       -0.4371
     27 O          21.6530   70.1829    0.9633 O.2     1  UNL1       -0.5170
     28 O          22.7214   72.5419    1.3633 O.3     1  UNL1       -0.2858
     29 O          24.3255   72.7952    3.0873 O.3     1  UNL1       -0.3226
     30 O          21.0396   74.7030    4.7095 O.3     1  UNL1       -0.3794
     31 O          20.7257   72.1821    3.2670 O.3     1  UNL1       -0.3775
     32 O          23.2571   76.2591    3.6550 O.3     1  UNL1       -0.3792
     33 C          21.9069   74.2637    3.6641 C.3     1  UNL1        0.1718
     34 C          21.9748   72.7363    3.6635 C.3     1  UNL1        0.1968
     35 C          23.2939   74.8580    3.9193 C.3     1  UNL1        0.1723
     36 C          23.0649   72.2375    2.7139 C.3     1  UNL1        0.2706
     37 C          24.3478   74.2193    3.0194 C.3     1  UNL1        0.1830
     38 H          20.1520   74.3375    4.5684 H       1  UNL1        0.2105
     39 H          20.0293   72.4946    3.8651 H       1  UNL1        0.2106
     40 H          22.5900   76.6776    4.2213 H       1  UNL1        0.2106
     41 O          26.4787   73.4353    3.6076 O.co2   1  UNL1       -0.5466
     42 O          26.1240   75.6837    3.7421 O.co2   1  UNL1       -0.5466
     43 C          25.7242   74.5562    3.4928 C.2     1  UNL1        0.0799
@<TRIPOS>UNITY_ATOM_ATTR
2 1
charge -1
26 1
charge -1
41 1
charge -1
@<TRIPOS>BOND
     1     1     4    1
     2     1    24    1
     3     1     2    1
     4     1     3    2
     5    25    28    1
     6    25    24    1
     7    25    26    1
     8    25    27    2
     9     6    11    1
    10     6    12    1
    11    29    36    1
    12    29    37    1
    13     7     9    1
    14     7    13    1
    15     8    10    1
    16     8    14    1
    17     4     5    1
    18    28    36    1
    19    30    33    1
    20    30    38    1
    21    31    34    1
    22    31    39    1
    23    32    35    1
    24    32    40    1
    25    41    43   ar
    26    15    19    2
    27    42    43   ar
    28    16    22    2
    29    17    12    1
    30    17    19   ar
    31    17    20   ar
    32    18    19   ar
    33    18    22   ar
    34    18    23    1
    35     9    10    1
    36     9    11    1
    37    10    12    1
    38    11     5    1
    39    33    34    1
    40    33    35    1
    41    34    36    1
    42    35    37    1
    43    37    43    1
    44    20    21   ar
    45    21    22   ar
@<TRIPOS>MOLECULE
*****
 43 45 0 0 0
SMALL
GASTEIGER

@<TRIPOS>ATOM
      1 P          23.4783   71.8929   -3.2936 P.3     1  UNL1        0.2189
      2 O          24.1754   72.9358   -4.3159 O.co2   1  UNL1       -0.4371
      3 O          24.3020   70.6826   -2.9638 O.2     1  UNL1       -0.5170
      4 O          22.0346   71.5992   -3.9624 O.3     1  UNL1       -0.3112
      5 C          21.5526   72.4922   -4.9497 C.3     1  UNL1        0.1811
      6 O          20.5884   70.5408   -5.9694 O.3     1  UNL1       -0.3308
      7 O          20.8808   71.9883   -8.5791 O.3     1  UNL1       -0.3794
      8 O          18.2369   72.3263   -8.0033 O.3     1  UNL1       -0.3779
      9 C          20.5543   72.5072   -7.2897 C.3     1  UNL1        0.1713
     10 C          19.1302   72.1455   -6.9244 C.3     1  UNL1        0.1895
     11 C          21.3558   71.7305   -6.2541 C.3     1  UNL1        0.1764
     12 C          19.2692   70.6882   -6.5182 C.3     1  UNL1        0.2383
     13 H          20.3806   72.4691   -9.2576 H       1  UNL1        0.2105
     14 H          18.1829   73.2699   -8.2237 H       1  UNL1        0.2106
     15 O          16.6561   69.7887   -7.1007 O.2     1  UNL1       -0.2464
     16 O          15.6565   69.2304   -2.6360 O.2     1  UNL1       -0.2670
     17 N          18.3053   70.3013   -5.5272 N.ar    1  UNL1       -0.2551
     18 N          16.1604   69.5125   -4.8764 N.ar    1  UNL1       -0.2743
     19 C          17.0199   69.8641   -5.9256 C.ar    1  UNL1        0.3323
     20 C          18.6370   70.3552   -4.1788 C.ar    1  UNL1        0.0869
     21 C          17.8070   70.0167   -3.1902 C.ar    1  UNL1        0.0795
     22 C          16.4446   69.5500   -3.5209 C.ar    1  UNL1        0.2626
     23 H          15.2592   69.2070   -5.1290 H       1  UNL1        0.1734
     24 O          23.1083   72.8219   -2.0236 O.3     1  UNL1       -0.2703
     25 P          21.9680   72.6631   -0.8886 P.3     1  UNL1        0.2208
     26 O          21.7423   71.0619   -0.8127 O.co2   1  UNL1       -0.4371
     27 O          20.7188   73.4517   -1.1561 O.2     1  UNL1       -0.5170
     28 O          22.7117   73.0354    0.4936 O.3     1  UNL1       -0.2858
     29 O          24.5475   72.2130    1.7437 O.3     1  UNL1       -0.3226
     30 O          21.7340   72.8491    4.7013 O.3     1  UNL1       -0.3794
     31 O          20.9577   71.6531    2.1516 O.3     1  UNL1       -0.3775
     32 O          23.9500   74.7018    4.3726 O.3     1  UNL1       -0.3792
     33 C          22.4022   73.0945    3.4638 C.3     1  UNL1        0.1718
     34 C          22.3014   71.8557    2.5735 C.3     1  UNL1        0.1968
     35 C          23.8674   73.4106    3.7721 C.3     1  UNL1        0.1723
     36 C          23.1951   71.9941    1.3402 C.3     1  UNL1        0.2706
     37 C          24.7167   73.4071    2.5043 C.3     1  UNL1        0.1830
     38 H          20.8009   72.6458    4.5304 H       1  UNL1        0.2105
     39 H          20.3849   71.5647    2.9291 H       1  UNL1        0.2106
     40 H          23.4135   74.7175    5.1805 H       1  UNL1        0.2106
     41 O          26.6458   74.6485    2.9932 O.co2   1  UNL1       -0.5466
     42 O          26.8494   72.3776    2.9663 O.co2   1  UNL1       -0.5466
     43 C          26.1722   73.3869    2.8410 C.2     1  UNL1        0.0799
@<TRIPOS>UNITY_ATOM_ATTR
2 1
charge -1
26 1
charge -1
41 1
charge -1
@<TRIPOS>BOND
     1     1     4    1
     2     1    24    1
     3     1     2    1
     4     1     3    2
     5    25    28    1
     6    25    24    1
     7    25    26    1
     8    25    27    2
     9     6    11    1
    10     6    12    1
    11    29    36    1
    12    29    37    1
    13     7     9    1
    14     7    13    1
    15     8    10    1
    16     8    14    1
    17     4     5    1
    18    28    36    1
    19    30    33    1
    20    30    38    1
    21    31    34    1
    22    31    39    1
    23    32    35    1
    24    32    40    1
    25    41    43   ar
    26    15    19    2
    27    42    43   ar
    28    16    22    2
    29    17    12    1
    30    17    19   ar
    31    17    20   ar
    32    18    19   ar
    33    18    22   ar
    34    18    23    1
    35     9    10    1
    36     9    11    1
    37    10    12    1
    38    11     5    1
    39    33    34    1
    40    33    35    1
    41    34    36    1
    42    35    37    1
    43    37    43    1
    44    20    21   ar
    45    21    22   ar
@<TRIPOS>MOLECULE
*****
 43 45 0 0 0
SMALL
GASTEIGER

@<TRIPOS>ATOM
      1 P          23.1925   72.0612   -3.6010 P.3     1  UNL1        0.2189
      2 O          23.9374   72.9245   -4.7493 O.co2   1  UNL1       -0.4371
      3 O          23.9932   70.9190   -3.0475 O.2     1  UNL1       -0.5170
      4 O          21.7741   71.6652   -4.2712 O.3     1  UNL1       -0.3112
      5 C          21.0545   70.5707   -3.7338 C.3     1  UNL1        0.1811
      6 O          19.0936   71.6497   -4.6104 O.3     1  UNL1       -0.3308
      7 O          17.6035   70.3692   -2.3452 O.3     1  UNL1       -0.3794
      8 O          16.9904   68.7505   -4.4523 O.3     1  UNL1       -0.3779
      9 C          18.6922   69.8577   -3.1143 C.3     1  UNL1        0.1713
     10 C          18.2152   69.4524   -4.4929 C.3     1  UNL1        0.1895
     11 C          19.6298   71.0153   -3.4291 C.3     1  UNL1        0.1764
     12 C          18.0966   70.7955   -5.1930 C.3     1  UNL1        0.2383
     13 H          16.9908   69.6476   -2.1318 H       1  UNL1        0.2105
     14 H          17.1185   67.9028   -3.9973 H       1  UNL1        0.2106
     15 O          16.1109   70.1695   -7.1014 O.2     1  UNL1       -0.2464
     16 O          19.1127   70.4547  -10.5874 O.2     1  UNL1       -0.2670
     17 N          18.3318   70.6996   -6.6060 N.ar    1  UNL1       -0.2551
     18 N          17.6081   70.3111   -8.8357 N.ar    1  UNL1       -0.2743
     19 C          17.2653   70.3790   -7.4789 C.ar    1  UNL1        0.3323
     20 C          19.6057   70.9233   -7.1138 C.ar    1  UNL1        0.0869
     21 C          19.9171   70.8552   -8.4096 C.ar    1  UNL1        0.0795
     22 C          18.8604   70.5249   -9.3883 C.ar    1  UNL1        0.2626
     23 H          16.8826   70.0875   -9.4625 H       1  UNL1        0.1734
     24 O          22.7798   73.1835   -2.5134 O.3     1  UNL1       -0.2703
     25 P          23.5973   74.4531   -1.9358 P.3     1  UNL1        0.2208
     26 O          22.4251   75.4531   -1.4396 O.co2   1  UNL1       -0.4371
     27 O          24.5581   75.0639   -2.9144 O.2     1  UNL1       -0.5170
     28 O          24.2781   73.9168   -0.5751 O.3     1  UNL1       -0.2858
     29 O          22.5863   73.2096    0.9239 O.3     1  UNL1       -0.3226
     30 O          26.0018   72.6195    3.1720 O.3     1  UNL1       -0.3794
     31 O          25.6981   75.0259    1.5437 O.3     1  UNL1       -0.3775
     32 O          24.6309   70.3512    1.9779 O.3     1  UNL1       -0.3792
     33 C          25.2236   72.6865    1.9770 C.3     1  UNL1        0.1718
     34 C          24.6554   74.0965    1.8147 C.3     1  UNL1        0.1968
     35 C          24.0895   71.6657    2.0935 C.3     1  UNL1        0.1723
     36 C          23.6347   74.1474    0.6770 C.3     1  UNL1        0.2706
     37 C          23.0480   71.8625    0.9958 C.3     1  UNL1        0.1830
     38 H          26.7289   73.2599    3.1209 H       1  UNL1        0.2105
     39 H          26.3496   74.9988    2.2615 H       1  UNL1        0.2106
     40 H          25.2954   70.2130    2.6708 H       1  UNL1        0.2106
     41 O          20.9088   71.8793    1.9576 O.co2   1  UNL1       -0.5466
     42 O          21.6063   69.9278    1.0068 O.co2   1  UNL1       -0.5466
     43 C          21.8023   71.0969    1.3030 C.2     1  UNL1        0.0799
@<TRIPOS>UNITY_ATOM_ATTR
2 1
charge -1
26 1
charge -1
41 1
charge -1
@<TRIPOS>BOND
     1     1     4    1
     2     1    24    1
     3     1     2    1
     4     1     3    2
     5    25    28    1
     6    25    24    1
     7    25    26    1
     8    25    27    2
     9     6    11    1
    10     6    12    1
    11    29    36    1
    12    29    37    1
    13     7     9    1
    14     7    13    1
    15     8    10    1
    16     8    14    1
    17     4     5    1
    18    28    36    1
    19    30    33    1
    20    30    38    1
    21    31    34    1
    22    31    39    1
    23    32    35    1
    24    32    40    1
    25    41    43   ar
    26    15    19    2
    27    42    43   ar
    28    16    22    2
    29    17    12    1
    30    17    19   ar
    31    17    20   ar
    32    18    19   ar
    33    18    22   ar
    34    18    23    1
    35     9    10    1
    36     9    11    1
    37    10    12    1
    38    11     5    1
    39    33    34    1
    40    33    35    1
    41    34    36    1
    42    35    37    1
    43    37    43    1
    44    20    21   ar
    45    21    22   ar
@<TRIPOS>MOLECULE
*****
 43 45 0 0 0
SMALL
GASTEIGER

@<TRIPOS>ATOM
      1 P          23.0223   71.3569   -2.4463 P.3     1  UNL1        0.2189
      2 O          22.7920   72.9587   -2.4519 O.co2   1  UNL1       -0.4371
      3 O          24.2963   70.8977   -3.0928 O.2     1  UNL1       -0.5170
      4 O          21.6579   70.7660   -3.0843 O.3     1  UNL1       -0.3112
      5 C          21.0002   71.5172   -4.0881 C.3     1  UNL1        0.1811
      6 O          21.1144   70.7361   -6.3585 O.3     1  UNL1       -0.3308
      7 O          23.2475   72.8038   -6.7662 O.3     1  UNL1       -0.3794
      8 O          21.0496   73.9915   -7.8592 O.3     1  UNL1       -0.3779
      9 C          22.0703   72.8666   -5.9606 C.3     1  UNL1        0.1713
     10 C          20.8461   73.0416   -6.8341 C.3     1  UNL1        0.1895
     11 C          21.8383   71.4870   -5.3597 C.3     1  UNL1        0.1764
     12 C          20.6389   71.6361   -7.3720 C.3     1  UNL1        0.2383
     13 H          23.4162   73.6740   -7.1610 H       1  UNL1        0.2105
     14 H          21.1762   74.8697   -7.4658 H       1  UNL1        0.2106
     15 O          19.6458   70.7655   -9.8685 O.2     1  UNL1       -0.2464
     16 O          15.3216   70.5686   -8.2853 O.2     1  UNL1       -0.2670
     17 N          19.2579   71.3499   -7.6399 N.ar    1  UNL1       -0.2551
     18 N          17.4929   70.6693   -9.0779 N.ar    1  UNL1       -0.2743
     19 C          18.8635   70.9187   -8.9285 C.ar    1  UNL1        0.3323
     20 C          18.3114   71.4954   -6.6329 C.ar    1  UNL1        0.0869
     21 C          17.0085   71.2538   -6.7903 C.ar    1  UNL1        0.0795
     22 C          16.5135   70.8002   -8.1066 C.ar    1  UNL1        0.2626
     23 H          17.1940   70.3699   -9.9669 H       1  UNL1        0.1734
     24 O          22.8862   70.9761   -0.8812 O.3     1  UNL1       -0.2703
     25 P          21.8203   71.4507    0.2378 P.3     1  UNL1        0.2208
     26 O          21.4887   70.0824    1.0365 O.co2   1  UNL1       -0.4371
     27 O          20.6139   72.1501   -0.3183 O.2     1  UNL1       -0.5170
     28 O          22.6838   72.3306    1.2784 O.3     1  UNL1       -0.2858
     29 O          24.5011   71.9220    2.7412 O.3     1  UNL1       -0.3226
     30 O          22.0764   74.3284    5.0646 O.3     1  UNL1       -0.3794
     31 O          20.9208   72.2038    3.4260 O.3     1  UNL1       -0.3775
     32 O          24.4781   75.4212    3.8445 O.3     1  UNL1       -0.3792
     33 C          22.6559   73.8450    3.8527 C.3     1  UNL1        0.1718
     34 C          22.3122   72.3658    3.6756 C.3     1  UNL1        0.1968
     35 C          24.1719   74.0318    3.9460 C.3     1  UNL1        0.1723
     36 C          23.1007   71.7560    2.5157 C.3     1  UNL1        0.2706
     37 C          24.8946   73.2898    2.8254 C.3     1  UNL1        0.1830
     38 H          21.1130   74.2199    5.0283 H       1  UNL1        0.2105
     39 H          20.4144   72.5887    4.1579 H       1  UNL1        0.2106
     40 H          24.0241   75.9049    4.5520 H       1  UNL1        0.2106
     41 O          26.8287   71.9630    2.8128 O.co2   1  UNL1       -0.5466
     42 O          27.0472   74.1133    3.5393 O.co2   1  UNL1       -0.5466
     43 C          26.3593   73.2009    3.1066 C.2     1  UNL1        0.0799
@<TRIPOS>UNITY_ATOM_ATTR
2 1
charge -1
26 1
charge -1
41 1
charge -1
@<TRIPOS>BOND
     1     1     4    1
     2     1    24    1
     3     1     2    1
     4     1     3    2
     5    25    28    1
     6    25    24    1
     7    25    26    1
     8    25    27    2
     9     6    11    1
    10     6    12    1
    11    29    36    1
    12    29    37    1
    13     7     9    1
    14     7    13    1
    15     8    10    1
    16     8    14    1
    17     4     5    1
    18    28    36    1
    19    30    33    1
    20    30    38    1
    21    31    34    1
    22    31    39    1
    23    32    35    1
    24    32    40    1
    25    41    43   ar
    26    15    19    2
    27    42    43   ar
    28    16    22    2
    29    17    12    1
    30    17    19   ar
    31    17    20   ar
    32    18    19   ar
    33    18    22   ar
    34    18    23    1
    35     9    10    1
    36     9    11    1
    37    10    12    1
    38    11     5    1
    39    33    34    1
    40    33    35    1
    41    34    36    1
    42    35    37    1
    43    37    43    1
    44    20    21   ar
    45    21    22   ar
@<TRIPOS>MOLECULE
*****
 43 45 0 0 0
SMALL
GASTEIGER

@<TRIPOS>ATOM
      1 P          21.6191   72.7005   -4.7862 P.3     1  UNL1        0.2189
      2 O          21.4509   74.3088   -4.8481 O.co2   1  UNL1       -0.4371
      3 O          22.5951   72.1272   -5.7714 O.2     1  UNL1       -0.5170
      4 O          20.1027   72.1468   -4.8960 O.3     1  UNL1       -0.3112
      5 C          19.5831   71.3816   -3.8241 C.3     1  UNL1        0.1811
      6 O          17.6739   71.7837   -5.2279 O.3     1  UNL1       -0.3308
      7 O          16.0878   70.2594   -3.1902 O.3     1  UNL1       -0.3794
      8 O          16.4632   68.4098   -5.1584 O.3     1  UNL1       -0.3779
      9 C          17.4264   70.0451   -3.6384 C.3     1  UNL1        0.1713
     10 C          17.4237   69.4365   -5.0247 C.3     1  UNL1        0.1895
     11 C          18.0614   71.4060   -3.8891 C.3     1  UNL1        0.1764
     12 C          17.1170   70.6414   -5.8976 C.3     1  UNL1        0.2383
     13 H          15.6614   69.4038   -3.0234 H       1  UNL1        0.2105
     14 H          16.7032   67.6656   -4.5833 H       1  UNL1        0.2106
     15 O          15.6566   70.7467   -8.3126 O.2     1  UNL1       -0.2464
     16 O          19.4670   70.2217  -10.8522 O.2     1  UNL1       -0.2670
     17 N          17.7023   70.5349   -7.2041 N.ar    1  UNL1       -0.2551
     18 N          17.5557   70.4841   -9.5752 N.ar    1  UNL1       -0.2743
     19 C          16.8796   70.5999   -8.3535 C.ar    1  UNL1        0.3323
     20 C          19.0756   70.3697   -7.3375 C.ar    1  UNL1        0.0869
     21 C          19.7056   70.2609   -8.5088 C.ar    1  UNL1        0.0795
     22 C          18.9189   70.3180   -9.7584 C.ar    1  UNL1        0.2626
     23 H          17.0037   70.5244  -10.3895 H       1  UNL1        0.1734
     24 O          21.9920   72.4340   -3.2361 O.3     1  UNL1       -0.2703
     25 P          23.4132   72.1491   -2.5201 P.3     1  UNL1        0.2208
     26 O          24.2565   73.4972   -2.8226 O.co2   1  UNL1       -0.4371
     27 O          24.0865   70.8846   -2.9693 O.2     1  UNL1       -0.5170
     28 O          23.0955   72.2135   -0.9398 O.3     1  UNL1       -0.2858
     29 O          24.3778   70.9902    0.6313 O.3     1  UNL1       -0.3226
     30 O          20.9282   71.7525    2.7731 O.3     1  UNL1       -0.3794
     31 O          20.7831   70.9603   -0.0351 O.3     1  UNL1       -0.3775
     32 O          23.3520   73.2593    3.3259 O.3     1  UNL1       -0.3792
     33 C          21.9502   72.0157    1.8116 C.3     1  UNL1        0.1718
     34 C          21.9618   70.9057    0.7603 C.3     1  UNL1        0.1968
     35 C          23.2908   72.0654    2.5479 C.3     1  UNL1        0.1723
     36 C          23.1837   71.0282   -0.1511 C.3     1  UNL1        0.2706
     37 C          24.4633   72.0588    1.5714 C.3     1  UNL1        0.1830
     38 H          20.0669   71.7164    2.3280 H       1  UNL1        0.2105
     39 H          20.0038   70.8835    0.5368 H       1  UNL1        0.2106
     40 H          22.6110   73.2760    3.9515 H       1  UNL1        0.2106
     41 O          26.1998   72.8901    2.9112 O.co2   1  UNL1       -0.5466
     42 O          26.3126   70.6946    2.3064 O.co2   1  UNL1       -0.5466
     43 C          25.7457   71.7767    2.2842 C.2     1  UNL1        0.0799
@<TRIPOS>UNITY_ATOM_ATTR
2 1
charge -1
26 1
charge -1
41 1
charge -1
@<TRIPOS>BOND
     1     1     4    1
     2     1    24    1
     3     1     2    1
     4     1     3    2
     5    25    28    1
     6    25    24    1
     7    25    26    1
     8    25    27    2
     9     6    11    1
    10     6    12    1
    11    29    36    1
    12    29    37    1
    13     7     9    1
    14     7    13    1
    15     8    10    1
    16     8    14    1
    17     4     5    1
    18    28    36    1
    19    30    33    1
    20    30    38    1
    21    31    34    1
    22    31    39    1
    23    32    35    1
    24    32    40    1
    25    41    43   ar
    26    15    19    2
    27    42    43   ar
    28    16    22    2
    29    17    12    1
    30    17    19   ar
    31    17    20   ar
    32    18    19   ar
    33    18    22   ar
    34    18    23    1
    35     9    10    1
    36     9    11    1
    37    10    12    1
    38    11     5    1
    39    33    34    1
    40    33    35    1
    41    34    36    1
    42    35    37    1
    43    37    43    1
    44    20    21   ar
    45    21    22   ar
@<TRIPOS>MOLECULE
*****
 43 45 0 0 0
SMALL
GASTEIGER

@<TRIPOS>ATOM
      1 P          20.8541   70.9924   -2.5493 P.3     1  UNL1        0.2189
      2 O          20.7546   69.8025   -3.6416 O.co2   1  UNL1       -0.4371
      3 O          21.3284   70.5671   -1.1906 O.2     1  UNL1       -0.5170
      4 O          19.3939   71.6876   -2.5979 O.3     1  UNL1       -0.3112
      5 C          18.9542   72.2521   -3.8196 C.3     1  UNL1        0.1811
      6 O          17.1256   72.1456   -5.3761 O.3     1  UNL1       -0.3308
      7 O          15.6760   70.5672   -3.2787 O.3     1  UNL1       -0.3794
      8 O          16.5364   68.6298   -4.9940 O.3     1  UNL1       -0.3779
      9 C          17.0634   70.5621   -3.6155 C.3     1  UNL1        0.1713
     10 C          17.2835   69.8260   -4.9201 C.3     1  UNL1        0.1895
     11 C          17.4632   71.9850   -3.9812 C.3     1  UNL1        0.1764
     12 C          16.8389   70.8573   -5.9431 C.3     1  UNL1        0.2383
     13 H          15.3972   69.6685   -3.0414 H       1  UNL1        0.2105
     14 H          16.8576   68.0060   -4.3234 H       1  UNL1        0.2106
     15 O          15.5817   70.5873   -8.4576 O.2     1  UNL1       -0.2464
     16 O          19.6248   70.3747  -10.6604 O.2     1  UNL1       -0.2670
     17 N          17.5390   70.7296   -7.1898 N.ar    1  UNL1       -0.2551
     18 N          17.5966   70.4807   -9.5522 N.ar    1  UNL1       -0.2743
     19 C          16.8126   70.5992   -8.3971 C.ar    1  UNL1        0.3323
     20 C          18.9284   70.7360   -7.2089 C.ar    1  UNL1        0.0869
     21 C          19.6619   70.6222   -8.3179 C.ar    1  UNL1        0.0795
     22 C          18.9804   70.4810   -9.6213 C.ar    1  UNL1        0.2626
     23 H          17.1133   70.3866  -10.4048 H       1  UNL1        0.1734
     24 O          21.7990   72.0799   -3.2824 O.3     1  UNL1       -0.2703
     25 P          23.4080   72.2319   -3.3236 P.3     1  UNL1        0.2208
     26 O          23.6905   72.7685   -4.8244 O.co2   1  UNL1       -0.4371
     27 O          24.1542   70.9798   -2.9638 O.2     1  UNL1       -0.5170
     28 O          23.7241   73.4963   -2.3729 O.3     1  UNL1       -0.2858
     29 O          22.9008   73.3057   -0.1604 O.3     1  UNL1       -0.3226
     30 O          24.0746   77.2649   -0.2825 O.3     1  UNL1       -0.3794
     31 O          22.6729   76.0654   -2.5477 O.3     1  UNL1       -0.3775
     32 O          25.7003   75.3035    1.1178 O.3     1  UNL1       -0.3792
     33 C          24.1304   75.8783   -0.6172 C.3     1  UNL1        0.1718
     34 C          22.8138   75.4559   -1.2697 C.3     1  UNL1        0.1968
     35 C          24.3619   75.0892    0.6735 C.3     1  UNL1        0.1723
     36 C          22.7464   73.9367   -1.4322 C.3     1  UNL1        0.2706
     37 C          24.1535   73.5932    0.4568 C.3     1  UNL1        0.1830
     38 H          23.9280   77.7863   -1.0875 H       1  UNL1        0.2105
     39 H          22.7150   77.0295   -2.4520 H       1  UNL1        0.2106
     40 H          25.8461   76.2520    1.2593 H       1  UNL1        0.2106
     41 O          25.2903   72.5893    2.2461 O.co2   1  UNL1       -0.5466
     42 O          23.0116   72.5872    2.3291 O.co2   1  UNL1       -0.5466
     43 C          24.0557   72.8764    1.7641 C.2     1  UNL1        0.0799
@<TRIPOS>UNITY_ATOM_ATTR
2 1
charge -1
26 1
charge -1
41 1
charge -1
@<TRIPOS>BOND
     1     1     4    1
     2     1    24    1
     3     1     2    1
     4     1     3    2
     5    25    28    1
     6    25    24    1
     7    25    26    1
     8    25    27    2
     9     6    11    1
    10     6    12    1
    11    29    36    1
    12    29    37    1
    13     7     9    1
    14     7    13    1
    15     8    10    1
    16     8    14    1
    17     4     5    1
    18    28    36    1
    19    30    33    1
    20    30    38    1
    21    31    34    1
    22    31    39    1
    23    32    35    1
    24    32    40    1
    25    41    43   ar
    26    15    19    2
    27    42    43   ar
    28    16    22    2
    29    17    12    1
    30    17    19   ar
    31    17    20   ar
    32    18    19   ar
    33    18    22   ar
    34    18    23    1
    35     9    10    1
    36     9    11    1
    37    10    12    1
    38    11     5    1
    39    33    34    1
    40    33    35    1
    41    34    36    1
    42    35    37    1
    43    37    43    1
    44    20    21   ar
    45    21    22   ar
@<TRIPOS>MOLECULE
*****
 43 45 0 0 0
SMALL
GASTEIGER

@<TRIPOS>ATOM
      1 P          21.4239   71.5338   -2.9657 P.3     1  UNL1        0.2189
      2 O          21.7349   72.7434   -3.9948 O.co2   1  UNL1       -0.4371
      3 O          22.1105   70.2382   -3.2848 O.2     1  UNL1       -0.5170
      4 O          19.8078   71.4772   -2.9096 O.3     1  UNL1       -0.3112
      5 C          19.1494   70.3681   -3.4934 C.3     1  UNL1        0.1811
      6 O          17.4820   71.3749   -4.9019 O.3     1  UNL1       -0.3308
      7 O          15.4675   69.8341   -3.3022 O.3     1  UNL1       -0.3794
      8 O          15.6983   68.3374   -5.5700 O.3     1  UNL1       -0.3779
      9 C          16.7842   69.4547   -3.7033 C.3     1  UNL1        0.1713
     10 C          16.8066   69.1210   -5.1799 C.3     1  UNL1        0.1895
     11 C          17.6686   70.6926   -3.6430 C.3     1  UNL1        0.1764
     12 C          16.7999   70.5009   -5.8152 C.3     1  UNL1        0.2383
     13 H          14.8840   69.0593   -3.3328 H       1  UNL1        0.2105
     14 H          15.7486   67.4691   -5.1394 H       1  UNL1        0.2106
     15 O          15.5015   70.6341   -8.3199 O.2     1  UNL1       -0.2464
     16 O          19.5053   70.5886  -10.6028 O.2     1  UNL1       -0.2670
     17 N          17.4787   70.5253   -7.0799 N.ar    1  UNL1       -0.2551
     18 N          17.4969   70.6103   -9.4545 N.ar    1  UNL1       -0.2743
     19 C          16.7327   70.5929   -8.2803 C.ar    1  UNL1        0.3323
     20 C          18.8670   70.4840   -7.1228 C.ar    1  UNL1        0.0869
     21 C          19.5815   70.5014   -8.2497 C.ar    1  UNL1        0.0795
     22 C          18.8786   70.5704   -9.5477 C.ar    1  UNL1        0.2626
     23 H          16.9995   70.6551  -10.3030 H       1  UNL1        0.1734
     24 O          21.8153   72.1679   -1.5314 O.3     1  UNL1       -0.2703
     25 P          21.9481   73.7060   -1.0515 P.3     1  UNL1        0.2208
     26 O          20.4831   74.3190   -1.3647 O.co2   1  UNL1       -0.4371
     27 O          23.0814   74.4549   -1.6908 O.2     1  UNL1       -0.5170
     28 O          22.0211   73.6277    0.5582 O.3     1  UNL1       -0.2858
     29 O          23.0461   71.6682    1.4061 O.3     1  UNL1       -0.3226
     30 O          21.4636   73.3409    4.8363 O.3     1  UNL1       -0.3794
     31 O          19.9217   73.3126    2.3552 O.3     1  UNL1       -0.3775
     32 O          24.3171   73.5169    4.3094 O.3     1  UNL1       -0.3792
     33 C          22.0432   73.3460    3.5317 C.3     1  UNL1        0.1718
     34 C          21.1310   72.5922    2.5635 C.3     1  UNL1        0.1968
     35 C          23.4091   72.6612    3.6183 C.3     1  UNL1        0.1723
     36 C          21.8214   72.3778    1.2159 C.3     1  UNL1        0.2706
     37 C          23.9744   72.3684    2.2315 C.3     1  UNL1        0.1830
     38 H          20.5946   73.7711    4.8059 H       1  UNL1        0.2105
     39 H          19.4784   73.4525    3.2062 H       1  UNL1        0.2106
     40 H          23.9690   73.7112    5.1937 H       1  UNL1        0.2106
     41 O          24.7389   70.1639    1.9921 O.co2   1  UNL1       -0.5466
     42 O          26.2661   71.7305    2.6343 O.co2   1  UNL1       -0.5466
     43 C          25.1271   71.4218    2.3176 C.2     1  UNL1        0.0799
@<TRIPOS>UNITY_ATOM_ATTR
2 1
charge -1
26 1
charge -1
41 1
charge -1
@<TRIPOS>BOND
     1     1     4    1
     2     1    24    1
     3     1     2    1
     4     1     3    2
     5    25    28    1
     6    25    24    1
     7    25    26    1
     8    25    27    2
     9     6    11    1
    10     6    12    1
    11    29    36    1
    12    29    37    1
    13     7     9    1
    14     7    13    1
    15     8    10    1
    16     8    14    1
    17     4     5    1
    18    28    36    1
    19    30    33    1
    20    30    38    1
    21    31    34    1
    22    31    39    1
    23    32    35    1
    24    32    40    1
    25    41    43   ar
    26    15    19    2
    27    42    43   ar
    28    16    22    2
    29    17    12    1
    30    17    19   ar
    31    17    20   ar
    32    18    19   ar
    33    18    22   ar
    34    18    23    1
    35     9    10    1
    36     9    11    1
    37    10    12    1
    38    11     5    1
    39    33    34    1
    40    33    35    1
    41    34    36    1
    42    35    37    1
    43    37    43    1
    44    20    21   ar
    45    21    22   ar
@<TRIPOS>MOLECULE
*****
 43 45 0 0 0
SMALL
GASTEIGER

@<TRIPOS>ATOM
      1 P          22.2569   72.4694   -4.3839 P.3     1  UNL1        0.2189
      2 O          22.0226   71.2411   -3.3565 O.co2   1  UNL1       -0.4371
      3 O          23.6901   72.7286   -4.7450 O.2     1  UNL1       -0.5170
      4 O          21.4706   73.7056   -3.6972 O.3     1  UNL1       -0.3112
      5 C          21.8327   74.0914   -2.3840 C.3     1  UNL1        0.1811
      6 O          21.0268   72.5993   -0.6806 O.3     1  UNL1       -0.3308
      7 O          19.0731   74.7612    0.0273 O.3     1  UNL1       -0.3794
      8 O          20.9918   75.0409    1.9447 O.3     1  UNL1       -0.3779
      9 C          20.4261   74.8751   -0.4143 C.3     1  UNL1        0.1713
     10 C          21.3755   74.4921    0.7012 C.3     1  UNL1        0.1895
     11 C          20.6797   73.7780   -1.4392 C.3     1  UNL1        0.1764
     12 C          21.2912   72.9754    0.6803 C.3     1  UNL1        0.2383
     13 H          18.8874   75.4520    0.6830 H       1  UNL1        0.2105
     14 H          21.0629   76.0081    1.9070 H       1  UNL1        0.2106
     15 O          21.6064   70.1991    1.0917 O.2     1  UNL1       -0.2464
     16 O          26.0202   70.6976    2.3221 O.2     1  UNL1       -0.2670
     17 N          22.5119   72.3528    1.1081 N.ar    1  UNL1       -0.2551
     18 N          23.8041   70.4502    1.7051 N.ar    1  UNL1       -0.2743
     19 C          22.5644   70.9499    1.2850 C.ar    1  UNL1        0.3323
     20 C          23.6399   73.1287    1.3459 C.ar    1  UNL1        0.0869
     21 C          24.8147   72.6379    1.7459 C.ar    1  UNL1        0.0795
     22 C          24.9538   71.1818    1.9551 C.ar    1  UNL1        0.2626
     23 H          23.8646   69.4764    1.8371 H       1  UNL1        0.1734
     24 O          21.3068   72.0835   -5.6334 O.3     1  UNL1       -0.2703
     25 P          20.9720   72.8823   -6.9985 P.3     1  UNL1        0.2208
     26 O          22.0123   72.2467   -8.0636 O.co2   1  UNL1       -0.4371
     27 O          21.0510   74.3763   -6.8730 O.2     1  UNL1       -0.5170
     28 O          19.5292   72.3242   -7.4559 O.3     1  UNL1       -0.2858
     29 O          19.0912   70.2177   -6.4661 O.3     1  UNL1       -0.3226
     30 O          15.8064   70.6895   -8.9269 O.3     1  UNL1       -0.3794
     31 O          18.4759   71.4164   -9.8648 O.3     1  UNL1       -0.3775
     32 O          15.5480   71.0787   -6.0576 O.3     1  UNL1       -0.3792
     33 C          16.8674   71.1178   -8.0732 C.3     1  UNL1        0.1718
     34 C          18.2086   70.6909   -8.6702 C.3     1  UNL1        0.1968
     35 C          16.6637   70.4677   -6.7029 C.3     1  UNL1        0.1723
     36 C          19.3487   70.9268   -7.6786 C.3     1  UNL1        0.2706
     37 C          17.8939   70.6392   -5.8165 C.3     1  UNL1        0.1830
     38 H          15.9149   71.0901   -9.8038 H       1  UNL1        0.2105
     39 H          17.7563   71.2714  -10.4984 H       1  UNL1        0.2106
     40 H          14.7584   70.9768   -6.6116 H       1  UNL1        0.2106
     41 O          19.0136   69.6977   -3.9831 O.co2   1  UNL1       -0.5466
     42 O          16.8283   69.1172   -4.2772 O.co2   1  UNL1       -0.5466
     43 C          17.8214   69.7366   -4.6280 C.2     1  UNL1        0.0799
@<TRIPOS>UNITY_ATOM_ATTR
2 1
charge -1
26 1
charge -1
41 1
charge -1
@<TRIPOS>BOND
     1     1     4    1
     2     1    24    1
     3     1     2    1
     4     1     3    2
     5    25    28    1
     6    25    24    1
     7    25    26    1
     8    25    27    2
     9     6    11    1
    10     6    12    1
    11    29    36    1
    12    29    37    1
    13     7     9    1
    14     7    13    1
    15     8    10    1
    16     8    14    1
    17     4     5    1
    18    28    36    1
    19    30    33    1
    20    30    38    1
    21    31    34    1
    22    31    39    1
    23    32    35    1
    24    32    40    1
    25    41    43   ar
    26    15    19    2
    27    42    43   ar
    28    16    22    2
    29    17    12    1
    30    17    19   ar
    31    17    20   ar
    32    18    19   ar
    33    18    22   ar
    34    18    23    1
    35     9    10    1
    36     9    11    1
    37    10    12    1
    38    11     5    1
    39    33    34    1
    40    33    35    1
    41    34    36    1
    42    35    37    1
    43    37    43    1
    44    20    21   ar
    45    21    22   ar
@<TRIPOS>MOLECULE
*****
 43 45 0 0 0
SMALL
GASTEIGER

@<TRIPOS>ATOM
      1 P          23.4620   71.8870   -3.2900 P.3     1  UNL1        0.2189
      2 O          24.1477   72.9603   -4.2884 O.co2   1  UNL1       -0.4371
      3 O          24.2762   70.6538   -3.0296 O.2     1  UNL1       -0.5170
      4 O          21.9976   71.6396   -3.9321 O.3     1  UNL1       -0.3112
      5 C          21.5449   72.5212   -4.9432 C.3     1  UNL1        0.1811
      6 O          20.6097   70.5426   -5.9373 O.3     1  UNL1       -0.3308
      7 O          20.8847   71.9587   -8.5661 O.3     1  UNL1       -0.3794
      8 O          18.2356   72.2668   -7.9977 O.3     1  UNL1       -0.3779
      9 C          20.5493   72.4902   -7.2842 C.3     1  UNL1        0.1713
     10 C          19.1300   72.1133   -6.9155 C.3     1  UNL1        0.1895
     11 C          21.3605   71.7391   -6.2373 C.3     1  UNL1        0.1764
     12 C          19.2892   70.6639   -6.4894 C.3     1  UNL1        0.2383
     13 H          20.3786   72.4231   -9.2516 H       1  UNL1        0.2105
     14 H          18.1685   73.2065   -8.2309 H       1  UNL1        0.2106
     15 O          16.6113   69.9589   -7.0450 O.2     1  UNL1       -0.2464
     16 O          15.6969   69.1953   -2.5925 O.2     1  UNL1       -0.2670
     17 N          18.3297   70.2767   -5.4942 N.ar    1  UNL1       -0.2551
     18 N          16.1581   69.5802   -4.8267 N.ar    1  UNL1       -0.2743
     19 C          17.0098   69.9420   -5.8788 C.ar    1  UNL1        0.3323
     20 C          18.6993   70.2299   -4.1556 C.ar    1  UNL1        0.0869
     21 C          17.8764   69.8831   -3.1640 C.ar    1  UNL1        0.0795
     22 C          16.4796   69.5195   -3.4804 C.ar    1  UNL1        0.2626
     23 H          15.2335   69.3449   -5.0696 H       1  UNL1        0.1734
     24 O          23.1378   72.7699   -1.9753 O.3     1  UNL1       -0.2703
     25 P          22.4408   72.3689   -0.5728 P.3     1  UNL1        0.2208
     26 O          23.0540   73.4476    0.4667 O.co2   1  UNL1       -0.4371
     27 O          22.6456   70.9370   -0.1707 O.2     1  UNL1       -0.5170
     28 O          20.8963   72.8016   -0.7449 O.3     1  UNL1       -0.2858
     29 O          19.9497   74.3110   -2.3053 O.3     1  UNL1       -0.3226
     30 O          17.3951   74.7198    0.9157 O.3     1  UNL1       -0.3794
     31 O          20.2825   74.5522    1.3275 O.3     1  UNL1       -0.3775
     32 O          16.5670   73.1995   -1.4196 O.3     1  UNL1       -0.3792
     33 C          18.2913   74.0330    0.0422 C.3     1  UNL1        0.1718
     34 C          19.6551   74.7237    0.0619 C.3     1  UNL1        0.1968
     35 C          17.6973   74.0679   -1.3677 C.3     1  UNL1        0.1723
     36 C          20.5692   74.1610   -1.0274 C.3     1  UNL1        0.2706
     37 C          18.7122   73.6105   -2.4113 C.3     1  UNL1        0.1830
     38 H          17.7520   74.7106    1.8179 H       1  UNL1        0.2105
     39 H          19.7078   74.9068    2.0235 H       1  UNL1        0.2106
     40 H          15.9134   73.4797   -0.7599 H       1  UNL1        0.2106
     41 O          17.1259   73.2627   -4.1036 O.co2   1  UNL1       -0.5466
     42 O          18.7975   74.7521   -4.5352 O.co2   1  UNL1       -0.5466
     43 C          18.2485   73.9553   -3.7891 C.2     1  UNL1        0.0799
@<TRIPOS>UNITY_ATOM_ATTR
2 1
charge -1
26 1
charge -1
41 1
charge -1
@<TRIPOS>BOND
     1     1     4    1
     2     1    24    1
     3     1     2    1
     4     1     3    2
     5    25    28    1
     6    25    24    1
     7    25    26    1
     8    25    27    2
     9     6    11    1
    10     6    12    1
    11    29    36    1
    12    29    37    1
    13     7     9    1
    14     7    13    1
    15     8    10    1
    16     8    14    1
    17     4     5    1
    18    28    36    1
    19    30    33    1
    20    30    38    1
    21    31    34    1
    22    31    39    1
    23    32    35    1
    24    32    40    1
    25    41    43   ar
    26    15    19    2
    27    42    43   ar
    28    16    22    2
    29    17    12    1
    30    17    19   ar
    31    17    20   ar
    32    18    19   ar
    33    18    22   ar
    34    18    23    1
    35     9    10    1
    36     9    11    1
    37    10    12    1
    38    11     5    1
    39    33    34    1
    40    33    35    1
    41    34    36    1
    42    35    37    1
    43    37    43    1
    44    20    21   ar
    45    21    22   ar
@<TRIPOS>MOLECULE
*****
 43 45 0 0 0
SMALL
GASTEIGER

@<TRIPOS>ATOM
      1 P          22.9284   71.5654   -2.5159 P.3     1  UNL1        0.2189
      2 O          24.2411   70.8480   -3.1330 O.co2   1  UNL1       -0.4371
      3 O          21.7621   70.6526   -2.2743 O.2     1  UNL1       -0.5170
      4 O          22.6546   72.8045   -3.5197 O.3     1  UNL1       -0.3112
      5 C          21.3604   72.9522   -4.0743 C.3     1  UNL1        0.1811
      6 O          20.6162   71.0486   -5.3393 O.3     1  UNL1       -0.3308
      7 O          21.0597   72.7318   -7.7810 O.3     1  UNL1       -0.3794
      8 O          18.3581   72.8770   -7.4399 O.3     1  UNL1       -0.3779
      9 C          20.5840   73.1180   -6.4914 C.3     1  UNL1        0.1713
     10 C          19.1570   72.6506   -6.2975 C.3     1  UNL1        0.1895
     11 C          21.3323   72.2977   -5.4495 C.3     1  UNL1        0.1764
     12 C          19.3469   71.1729   -6.0002 C.3     1  UNL1        0.2383
     13 H          20.5960   73.2426   -8.4634 H       1  UNL1        0.2105
     14 H          18.2671   73.8321   -7.5866 H       1  UNL1        0.2106
     15 O          16.9060   70.0849   -6.9140 O.2     1  UNL1       -0.2464
     16 O          15.4840   69.1971   -2.6206 O.2     1  UNL1       -0.2670
     17 N          18.3209   70.6503   -5.1428 N.ar    1  UNL1       -0.2551
     18 N          16.1997   69.6447   -4.7747 N.ar    1  UNL1       -0.2743
     19 C          17.1319   70.1265   -5.7031 C.ar    1  UNL1        0.3323
     20 C          18.4981   70.6581   -3.7646 C.ar    1  UNL1        0.0869
     21 C          17.6005   70.1953   -2.8923 C.ar    1  UNL1        0.0795
     22 C          16.3306   69.6318   -3.3955 C.ar    1  UNL1        0.2626
     23 H          15.3630   69.2770   -5.1410 H       1  UNL1        0.1734
     24 O          23.5010   72.2916   -1.1901 O.3     1  UNL1       -0.2703
     25 P          22.7467   72.8330    0.1333 P.3     1  UNL1        0.2208
     26 O          23.2953   71.8527    1.2989 O.co2   1  UNL1       -0.4371
     27 O          21.2507   72.8764    0.0151 O.2     1  UNL1       -0.5170
     28 O          23.4355   74.2586    0.4427 O.3     1  UNL1       -0.2858
     29 O          21.7449   75.2744    1.7538 O.3     1  UNL1       -0.3226
     30 O          22.9626   72.1788    4.2038 O.3     1  UNL1       -0.3794
     31 O          24.9274   73.7682    2.7382 O.3     1  UNL1       -0.3775
     32 O          20.4547   71.9862    2.7464 O.3     1  UNL1       -0.3792
     33 C          22.7004   72.8318    2.9617 C.3     1  UNL1        0.1718
     34 C          23.5491   74.0996    2.8609 C.3     1  UNL1        0.1968
     35 C          21.2116   73.1830    2.9170 C.3     1  UNL1        0.1723
     36 C          23.1307   74.9436    1.6562 C.3     1  UNL1        0.2706
     37 C          20.8967   74.1283    1.7612 C.3     1  UNL1        0.1830
     38 H          23.9031   71.9462    4.2548 H       1  UNL1        0.2105
     39 H          25.1996   73.2323    3.4992 H       1  UNL1        0.2106
     40 H          20.6461   71.3758    3.4755 H       1  UNL1        0.2106
     41 O          19.1319   75.3063    0.7615 O.co2   1  UNL1       -0.5466
     42 O          18.8657   74.6844    2.9390 O.co2   1  UNL1       -0.5466
     43 C          19.5338   74.7205    1.9166 C.2     1  UNL1        0.0799
@<TRIPOS>UNITY_ATOM_ATTR
2 1
charge -1
26 1
charge -1
41 1
charge -1
@<TRIPOS>BOND
     1     1     4    1
     2     1    24    1
     3     1     2    1
     4     1     3    2
     5    25    28    1
     6    25    24    1
     7    25    26    1
     8    25    27    2
     9     6    11    1
    10     6    12    1
    11    29    36    1
    12    29    37    1
    13     7     9    1
    14     7    13    1
    15     8    10    1
    16     8    14    1
    17     4     5    1
    18    28    36    1
    19    30    33    1
    20    30    38    1
    21    31    34    1
    22    31    39    1
    23    32    35    1
    24    32    40    1
    25    41    43   ar
    26    15    19    2
    27    42    43   ar
    28    16    22    2
    29    17    12    1
    30    17    19   ar
    31    17    20   ar
    32    18    19   ar
    33    18    22   ar
    34    18    23    1
    35     9    10    1
    36     9    11    1
    37    10    12    1
    38    11     5    1
    39    33    34    1
    40    33    35    1
    41    34    36    1
    42    35    37    1
    43    37    43    1
    44    20    21   ar
    45    21    22   ar
@<TRIPOS>MOLECULE
*****
 43 45 0 0 0
SMALL
GASTEIGER

@<TRIPOS>ATOM
      1 P          20.3057   71.9127   -2.3655 P.3     1  UNL1        0.2189
      2 O          20.7608   70.3801   -2.1146 O.co2   1  UNL1       -0.4371
      3 O          19.5790   72.5535   -1.2196 O.2     1  UNL1       -0.5170
      4 O          19.4969   71.8536   -3.7656 O.3     1  UNL1       -0.3112
      5 C          18.5140   72.8401   -4.0207 C.3     1  UNL1        0.1811
      6 O          16.7401   72.0802   -5.4537 O.3     1  UNL1       -0.3308
      7 O          15.8193   70.4281   -3.1269 O.3     1  UNL1       -0.3794
      8 O          17.1204   68.6007   -4.6773 O.3     1  UNL1       -0.3779
      9 C          17.1486   70.7485   -3.5379 C.3     1  UNL1        0.1713
     10 C          17.5230   69.9512   -4.7693 C.3     1  UNL1        0.1895
     11 C          17.1446   72.1748   -4.0707 C.3     1  UNL1        0.1764
     12 C          16.7928   70.7056   -5.8674 C.3     1  UNL1        0.2383
     13 H          15.7967   69.5211   -2.7825 H       1  UNL1        0.2105
     14 H          17.6137   68.1641   -3.9646 H       1  UNL1        0.2106
     15 O          15.4902   70.6630   -8.3730 O.2     1  UNL1       -0.2464
     16 O          19.4875   70.3901  -10.6514 O.2     1  UNL1       -0.2670
     17 N          17.4688   70.6239   -7.1312 N.ar    1  UNL1       -0.2551
     18 N          17.4823   70.5261   -9.5053 N.ar    1  UNL1       -0.2743
     19 C          16.7208   70.6089   -8.3321 C.ar    1  UNL1        0.3323
     20 C          18.8564   70.5614   -7.1727 C.ar    1  UNL1        0.0869
     21 C          19.5683   70.4829   -8.2987 C.ar    1  UNL1        0.0795
     22 C          18.8632   70.4612   -9.5971 C.ar    1  UNL1        0.2626
     23 H          16.9835   70.5121  -10.3540 H       1  UNL1        0.1734
     24 O          21.6899   72.6396   -2.7759 O.3     1  UNL1       -0.2703
     25 P          23.2214   72.3087   -2.3774 P.3     1  UNL1        0.2208
     26 O          23.9499   73.7506   -2.4789 O.co2   1  UNL1       -0.4371
     27 O          23.8566   71.2348   -3.2123 O.2     1  UNL1       -0.5170
     28 O          23.1729   71.9874   -0.7972 O.3     1  UNL1       -0.2858
     29 O          22.8678   73.9381    0.5106 O.3     1  UNL1       -0.3226
     30 O          23.5337   71.0752    3.4138 O.3     1  UNL1       -0.3794
     31 O          25.1320   71.1044    0.9686 O.3     1  UNL1       -0.3775
     32 O          20.8443   72.0694    2.9346 O.3     1  UNL1       -0.3792
     33 C          23.0716   71.5763    2.1595 C.3     1  UNL1        0.1718
     34 C          24.2505   72.1466    1.3705 C.3     1  UNL1        0.1968
     35 C          22.0390   72.6706    2.4388 C.3     1  UNL1        0.1723
     36 C          23.7663   72.8960    0.1285 C.3     1  UNL1        0.2706
     37 C          21.7018   73.4544    1.1737 C.3     1  UNL1        0.1830
     38 H          24.1912   70.3783    3.2614 H       1  UNL1        0.2105
     39 H          25.4429   70.6245    1.7518 H       1  UNL1        0.2106
     40 H          21.0451   71.5673    3.7399 H       1  UNL1        0.2106
     41 O          20.9457   75.5524    0.4468 O.co2   1  UNL1       -0.5466
     42 O          20.4375   74.9475    2.5857 O.co2   1  UNL1       -0.5466
     43 C          20.9615   74.7084    1.5081 C.2     1  UNL1        0.0799
@<TRIPOS>UNITY_ATOM_ATTR
2 1
charge -1
26 1
charge -1
41 1
charge -1
@<TRIPOS>BOND
     1     1     4    1
     2     1    24    1
     3     1     2    1
     4     1     3    2
     5    25    28    1
     6    25    24    1
     7    25    26    1
     8    25    27    2
     9     6    11    1
    10     6    12    1
    11    29    36    1
    12    29    37    1
    13     7     9    1
    14     7    13    1
    15     8    10    1
    16     8    14    1
    17     4     5    1
    18    28    36    1
    19    30    33    1
    20    30    38    1
    21    31    34    1
    22    31    39    1
    23    32    35    1
    24    32    40    1
    25    41    43   ar
    26    15    19    2
    27    42    43   ar
    28    16    22    2
    29    17    12    1
    30    17    19   ar
    31    17    20   ar
    32    18    19   ar
    33    18    22   ar
    34    18    23    1
    35     9    10    1
    36     9    11    1
    37    10    12    1
    38    11     5    1
    39    33    34    1
    40    33    35    1
    41    34    36    1
    42    35    37    1
    43    37    43    1
    44    20    21   ar
    45    21    22   ar
@<TRIPOS>MOLECULE
*****
 43 45 0 0 0
SMALL
GASTEIGER

@<TRIPOS>ATOM
      1 P          23.4717   72.3303   -3.5445 P.3     1  UNL1        0.2189
      2 O          24.1262   70.8794   -3.2525 O.co2   1  UNL1       -0.4371
      3 O          24.4420   73.3852   -3.9891 O.2     1  UNL1       -0.5170
      4 O          22.6433   72.6617   -2.1947 O.3     1  UNL1       -0.3112
      5 C          23.3550   72.7795   -0.9765 C.3     1  UNL1        0.1811
      6 O          24.4091   71.2768    0.5754 O.3     1  UNL1       -0.3308
      7 O          21.6624   70.1994    1.1107 O.3     1  UNL1       -0.3794
      8 O          22.0868   71.8381    3.2486 O.3     1  UNL1       -0.3779
      9 C          22.0694   71.5400    0.8355 C.3     1  UNL1        0.1713
     10 C          22.7601   72.1364    2.0436 C.3     1  UNL1        0.1895
     11 C          23.1991   71.4880   -0.1840 C.3     1  UNL1        0.1764
     12 C          24.1358   71.4962    1.9684 C.3     1  UNL1        0.2383
     13 H          20.9412   70.2069    1.7599 H       1  UNL1        0.2105
     14 H          21.2168   72.2684    3.2480 H       1  UNL1        0.2106
     15 O          26.8125   70.6893    2.3694 O.2     1  UNL1       -0.2464
     16 O          27.9867   74.8018    4.0877 O.2     1  UNL1       -0.2670
     17 N          25.1618   72.3360    2.5189 N.ar    1  UNL1       -0.2551
     18 N          27.3945   72.7380    3.2258 N.ar    1  UNL1       -0.2743
     19 C          26.4748   71.8335    2.6789 C.ar    1  UNL1        0.3323
     20 C          24.8640   73.6410    2.8919 C.ar    1  UNL1        0.0869
     21 C          25.7514   74.4914    3.4117 C.ar    1  UNL1        0.0795
     22 C          27.1455   74.0449    3.6126 C.ar    1  UNL1        0.2626
     23 H          28.3147   72.4102    3.3486 H       1  UNL1        0.1734
     24 O          22.3062   71.9942   -4.6129 O.3     1  UNL1       -0.2703
     25 P          21.5930   72.9183   -5.7314 P.3     1  UNL1        0.2208
     26 O          22.4833   72.6490   -7.0562 O.co2   1  UNL1       -0.4371
     27 O          21.4739   74.3655   -5.3500 O.2     1  UNL1       -0.5170
     28 O          20.1865   72.1869   -6.0304 O.3     1  UNL1       -0.2858
     29 O          19.5019   70.0018   -5.4255 O.3     1  UNL1       -0.3226
     30 O          17.3855   70.6083   -8.9214 O.3     1  UNL1       -0.3794
     31 O          20.1744   71.4529   -8.7131 O.3     1  UNL1       -0.3775
     32 O          16.0350   70.7665   -6.3519 O.3     1  UNL1       -0.3792
     33 C          18.0199   70.9867   -7.6997 C.3     1  UNL1        0.1718
     34 C          19.5056   70.6314   -7.7632 C.3     1  UNL1        0.1968
     35 C          17.3393   70.2275   -6.5585 C.3     1  UNL1        0.1723
     36 C          20.1693   70.8084   -6.3968 C.3     1  UNL1        0.2706
     37 C          18.1293   70.3502   -5.2588 C.3     1  UNL1        0.1830
     38 H          17.8016   71.0784   -9.6611 H       1  UNL1        0.2105
     39 H          19.7582   71.3457   -9.5825 H       1  UNL1        0.2106
     40 H          15.5218   70.6947   -7.1719 H       1  UNL1        0.2106
     41 O          16.5999   68.6500   -4.7373 O.co2   1  UNL1       -0.5466
     42 O          18.1354   69.1931   -3.1416 O.co2   1  UNL1       -0.5466
     43 C          17.6508   69.3560   -4.2514 C.2     1  UNL1        0.0799
@<TRIPOS>UNITY_ATOM_ATTR
2 1
charge -1
26 1
charge -1
41 1
charge -1
@<TRIPOS>BOND
     1     1     4    1
     2     1    24    1
     3     1     2    1
     4     1     3    2
     5    25    28    1
     6    25    24    1
     7    25    26    1
     8    25    27    2
     9     6    11    1
    10     6    12    1
    11    29    36    1
    12    29    37    1
    13     7     9    1
    14     7    13    1
    15     8    10    1
    16     8    14    1
    17     4     5    1
    18    28    36    1
    19    30    33    1
    20    30    38    1
    21    31    34    1
    22    31    39    1
    23    32    35    1
    24    32    40    1
    25    41    43   ar
    26    15    19    2
    27    42    43   ar
    28    16    22    2
    29    17    12    1
    30    17    19   ar
    31    17    20   ar
    32    18    19   ar
    33    18    22   ar
    34    18    23    1
    35     9    10    1
    36     9    11    1
    37    10    12    1
    38    11     5    1
    39    33    34    1
    40    33    35    1
    41    34    36    1
    42    35    37    1
    43    37    43    1
    44    20    21   ar
    45    21    22   ar
@<TRIPOS>MOLECULE
*****
 43 45 0 0 0
SMALL
GASTEIGER

@<TRIPOS>ATOM
      1 P          23.4279   71.9556   -3.3642 P.3     1  UNL1        0.2189
      2 O          24.1938   72.9921   -4.3429 O.co2   1  UNL1       -0.4371
      3 O          24.1952   70.7082   -3.0372 O.2     1  UNL1       -0.5170
      4 O          21.9947   71.7314   -4.0809 O.3     1  UNL1       -0.3112
      5 C          21.2274   70.5981   -3.7183 C.3     1  UNL1        0.1811
      6 O          19.2393   71.6554   -4.5592 O.3     1  UNL1       -0.3308
      7 O          17.8180   70.4153   -2.2282 O.3     1  UNL1       -0.3794
      8 O          17.1498   68.7548   -4.2854 O.3     1  UNL1       -0.3779
      9 C          18.8858   69.8916   -3.0181 C.3     1  UNL1        0.1713
     10 C          18.3709   69.4587   -4.3745 C.3     1  UNL1        0.1895
     11 C          19.8107   71.0452   -3.3817 C.3     1  UNL1        0.1764
     12 C          18.2285   70.7877   -5.0966 C.3     1  UNL1        0.2383
     13 H          17.2136   69.6966   -1.9836 H       1  UNL1        0.2105
     14 H          17.2933   67.9164   -3.8180 H       1  UNL1        0.2106
     15 O          16.2313   69.9650   -6.9162 O.2     1  UNL1       -0.2464
     16 O          19.0894   70.3530  -10.5112 O.2     1  UNL1       -0.2670
     17 N          18.4236   70.6650   -6.5136 N.ar    1  UNL1       -0.2551
     18 N          17.6570   70.1581   -8.7048 N.ar    1  UNL1       -0.2743
     19 C          17.3548   70.2434   -7.3394 C.ar    1  UNL1        0.3323
     20 C          19.6611   70.9621   -7.0716 C.ar    1  UNL1        0.0869
     21 C          19.9340   70.8762   -8.3750 C.ar    1  UNL1        0.0795
     22 C          18.8722   70.4423   -9.3066 C.ar    1  UNL1        0.2626
     23 H          16.9292   69.8647   -9.2995 H       1  UNL1        0.1734
     24 O          23.0554   72.8717   -2.0856 O.3     1  UNL1       -0.2703
     25 P          22.5558   72.4700   -0.6014 P.3     1  UNL1        0.2208
     26 O          23.3678   73.4952    0.3524 O.co2   1  UNL1       -0.4371
     27 O          22.7486   71.0213   -0.2579 O.2     1  UNL1       -0.5170
     28 O          21.0255   72.9761   -0.5337 O.3     1  UNL1       -0.2858
     29 O          19.8690   74.5595   -1.8620 O.3     1  UNL1       -0.3226
     30 O          18.0532   75.0604    1.8150 O.3     1  UNL1       -0.3794
     31 O          20.9493   74.7261    1.6268 O.3     1  UNL1       -0.3775
     32 O          16.6799   73.6244   -0.3071 O.3     1  UNL1       -0.3792
     33 C          18.7113   74.3382    0.7741 C.3     1  UNL1        0.1718
     34 C          20.0879   74.9517    0.5169 C.3     1  UNL1        0.1968
     35 C          17.8451   74.4278   -0.4843 C.3     1  UNL1        0.1723
     36 C          20.7265   74.3558   -0.7384 C.3     1  UNL1        0.2706
     37 C          18.5977   73.9306   -1.7151 C.3     1  UNL1        0.1830
     38 H          18.5854   75.0174    2.6250 H       1  UNL1        0.2105
     39 H          20.5501   75.1014    2.4269 H       1  UNL1        0.2106
     40 H          16.1919   73.9304    0.4733 H       1  UNL1        0.2106
     41 O          16.7678   73.5695   -3.1373 O.co2   1  UNL1       -0.5466
     42 O          18.2456   75.1990   -3.7372 O.co2   1  UNL1       -0.5466
     43 C          17.8832   74.3218   -2.9676 C.2     1  UNL1        0.0799
@<TRIPOS>UNITY_ATOM_ATTR
2 1
charge -1
26 1
charge -1
41 1
charge -1
@<TRIPOS>BOND
     1     1     4    1
     2     1    24    1
     3     1     2    1
     4     1     3    2
     5    25    28    1
     6    25    24    1
     7    25    26    1
     8    25    27    2
     9     6    11    1
    10     6    12    1
    11    29    36    1
    12    29    37    1
    13     7     9    1
    14     7    13    1
    15     8    10    1
    16     8    14    1
    17     4     5    1
    18    28    36    1
    19    30    33    1
    20    30    38    1
    21    31    34    1
    22    31    39    1
    23    32    35    1
    24    32    40    1
    25    41    43   ar
    26    15    19    2
    27    42    43   ar
    28    16    22    2
    29    17    12    1
    30    17    19   ar
    31    17    20   ar
    32    18    19   ar
    33    18    22   ar
    34    18    23    1
    35     9    10    1
    36     9    11    1
    37    10    12    1
    38    11     5    1
    39    33    34    1
    40    33    35    1
    41    34    36    1
    42    35    37    1
    43    37    43    1
    44    20    21   ar
    45    21    22   ar
@<TRIPOS>MOLECULE
*****
 43 45 0 0 0
SMALL
GASTEIGER

@<TRIPOS>ATOM
      1 P          21.8845   72.4954   -4.7774 P.3     1  UNL1        0.2189
      2 O          23.4920   72.4531   -4.9591 O.co2   1  UNL1       -0.4371
      3 O          21.2549   73.8363   -5.0172 O.2     1  UNL1       -0.5170
      4 O          21.6423   71.8578   -3.3102 O.3     1  UNL1       -0.3112
      5 C          20.9462   70.6288   -3.2136 C.3     1  UNL1        0.1811
      6 O          20.3805   70.6653   -0.8777 O.3     1  UNL1       -0.3308
      7 O          17.8251   71.9965   -1.7080 O.3     1  UNL1       -0.3794
      8 O          19.3271   74.0919   -0.8194 O.3     1  UNL1       -0.3779
      9 C          19.1367   72.1381   -2.2542 C.3     1  UNL1        0.1713
     10 C          20.0048   72.9612   -1.3263 C.3     1  UNL1        0.1895
     11 C          19.8166   70.7767   -2.2024 C.3     1  UNL1        0.1764
     12 C          20.3527   71.9539   -0.2436 C.3     1  UNL1        0.2383
     13 H          17.3709   72.8538   -1.7304 H       1  UNL1        0.2105
     14 H          19.1282   74.7027   -1.5470 H       1  UNL1        0.2106
     15 O          21.7618   70.1074    1.3631 O.2     1  UNL1       -0.2464
     16 O          25.2612   73.0416    1.9861 O.2     1  UNL1       -0.2670
     17 N          21.6341   72.2094    0.3512 N.ar    1  UNL1       -0.2551
     18 N          23.5029   71.5709    1.6727 N.ar    1  UNL1       -0.2743
     19 C          22.2564   71.2142    1.1415 C.ar    1  UNL1        0.3323
     20 C          22.2614   73.4326    0.1484 C.ar    1  UNL1        0.0869
     21 C          23.4496   73.7580    0.6613 C.ar    1  UNL1        0.0795
     22 C          24.1665   72.7747    1.4995 C.ar    1  UNL1        0.2626
     23 H          23.9546   70.8951    2.2280 H       1  UNL1        0.1734
     24 O          21.3761   71.3256   -5.7704 O.3     1  UNL1       -0.2703
     25 P          20.9017   71.3763   -7.3150 P.3     1  UNL1        0.2208
     26 O          21.0668   69.8418   -7.8032 O.co2   1  UNL1       -0.4371
     27 O          21.6436   72.3756   -8.1547 O.2     1  UNL1       -0.5170
     28 O          19.3073   71.6123   -7.2459 O.3     1  UNL1       -0.2858
     29 O          17.8012   70.0008   -6.3834 O.3     1  UNL1       -0.3226
     30 O          15.3133   72.2912   -8.7567 O.3     1  UNL1       -0.3794
     31 O          17.9808   71.5506   -9.6898 O.3     1  UNL1       -0.3775
     32 O          15.2438   72.5802   -5.8649 O.3     1  UNL1       -0.3792
     33 C          16.4232   72.0391   -7.8950 C.3     1  UNL1        0.1718
     34 C          17.3465   71.0046   -8.5390 C.3     1  UNL1        0.1968
     35 C          15.8793   71.5123   -6.5651 C.3     1  UNL1        0.1723
     36 C          18.4189   70.5393   -7.5529 C.3     1  UNL1        0.2706
     37 C          16.9961   70.9513   -5.6895 C.3     1  UNL1        0.1830
     38 H          15.6347   72.6269   -9.6084 H       1  UNL1        0.2105
     39 H          17.3062   71.8481  -10.3197 H       1  UNL1        0.2106
     40 H          14.5310   72.9463   -6.4114 H       1  UNL1        0.2106
     41 O          16.4944   68.8260   -4.8333 O.co2   1  UNL1       -0.5466
     42 O          15.9809   70.6220   -3.5256 O.co2   1  UNL1       -0.5466
     43 C          16.4334   70.1527   -4.5591 C.2     1  UNL1        0.0799
@<TRIPOS>UNITY_ATOM_ATTR
2 1
charge -1
26 1
charge -1
41 1
charge -1
@<TRIPOS>BOND
     1     1     4    1
     2     1    24    1
     3     1     2    1
     4     1     3    2
     5    25    28    1
     6    25    24    1
     7    25    26    1
     8    25    27    2
     9     6    11    1
    10     6    12    1
    11    29    36    1
    12    29    37    1
    13     7     9    1
    14     7    13    1
    15     8    10    1
    16     8    14    1
    17     4     5    1
    18    28    36    1
    19    30    33    1
    20    30    38    1
    21    31    34    1
    22    31    39    1
    23    32    35    1
    24    32    40    1
    25    41    43   ar
    26    15    19    2
    27    42    43   ar
    28    16    22    2
    29    17    12    1
    30    17    19   ar
    31    17    20   ar
    32    18    19   ar
    33    18    22   ar
    34    18    23    1
    35     9    10    1
    36     9    11    1
    37    10    12    1
    38    11     5    1
    39    33    34    1
    40    33    35    1
    41    34    36    1
    42    35    37    1
    43    37    43    1
    44    20    21   ar
    45    21    22   ar
@<TRIPOS>MOLECULE
*****
 43 45 0 0 0
SMALL
GASTEIGER

@<TRIPOS>ATOM
      1 P          22.2787   72.9553   -1.5927 P.3     1  UNL1        0.2189
      2 O          22.8503   74.1280   -2.5503 O.co2   1  UNL1       -0.4371
      3 O          23.1736   71.7589   -1.4529 O.2     1  UNL1       -0.5170
      4 O          20.7994   72.6617   -2.1787 O.3     1  UNL1       -0.3112
      5 C          20.5187   73.0236   -3.5183 C.3     1  UNL1        0.1811
      6 O          20.9045   71.2598   -5.1051 O.3     1  UNL1       -0.3308
      7 O          23.3197   72.8147   -5.9655 O.3     1  UNL1       -0.3794
      8 O          21.4993   73.4211   -7.9031 O.3     1  UNL1       -0.3779
      9 C          22.0439   73.2911   -5.5370 C.3     1  UNL1        0.1713
     10 C          21.0118   73.0754   -6.6235 C.3     1  UNL1        0.1895
     11 C          21.5436   72.3676   -4.4346 C.3     1  UNL1        0.1764
     12 C          20.7196   71.5905   -6.4906 C.3     1  UNL1        0.2383
     13 H          23.6598   73.3890   -6.6700 H       1  UNL1        0.2105
     14 H          21.6697   74.3760   -7.9371 H       1  UNL1        0.2106
     15 O          18.7690   70.5504   -4.7328 O.2     1  UNL1       -0.2464
     16 O          15.5983   70.3585   -8.0725 O.2     1  UNL1       -0.2670
     17 N          19.3764   71.2599   -6.8744 N.ar    1  UNL1       -0.2551
     18 N          17.1920   70.4549   -6.3981 N.ar    1  UNL1       -0.2743
     19 C          18.4748   70.7432   -5.9140 C.ar    1  UNL1        0.3323
     20 C          18.9636   71.4494   -8.1876 C.ar    1  UNL1        0.0869
     21 C          17.7375   71.1701   -8.6341 C.ar    1  UNL1        0.0795
     22 C          16.7351   70.6257   -7.6949 C.ar    1  UNL1        0.2626
     23 H          16.5473   70.0921   -5.7484 H       1  UNL1        0.1734
     24 O          21.9736   73.7332   -0.2090 O.3     1  UNL1       -0.2703
     25 P          21.2186   73.2497    1.1363 P.3     1  UNL1        0.2208
     26 O          22.3962   73.2643    2.2469 O.co2   1  UNL1       -0.4371
     27 O          20.5088   71.9334    1.0049 O.2     1  UNL1       -0.5170
     28 O          20.2650   74.4874    1.5378 O.3     1  UNL1       -0.2858
     29 O          21.7217   76.3385    1.7847 O.3     1  UNL1       -0.3226
     30 O          18.0262   78.0947    2.3567 O.3     1  UNL1       -0.3794
     31 O          18.6324   75.4980    3.5501 O.3     1  UNL1       -0.3775
     32 O          19.4451   78.4653   -0.1533 O.3     1  UNL1       -0.3792
     33 C          18.9525   77.1568    1.8088 C.3     1  UNL1        0.1718
     34 C          19.5935   76.3508    2.9388 C.3     1  UNL1        0.1968
     35 C          20.0202   77.9397    1.0414 C.3     1  UNL1        0.1723
     36 C          20.7522   75.5008    2.4155 C.3     1  UNL1        0.2706
     37 C          21.2004   77.0491    0.6638 C.3     1  UNL1        0.1830
     38 H          17.3381   77.6199    2.8491 H       1  UNL1        0.2105
     39 H          17.8942   76.0308    3.8842 H       1  UNL1        0.2106
     40 H          18.6926   79.0340    0.0730 H       1  UNL1        0.2106
     41 O          22.0609   78.5580   -0.9123 O.co2   1  UNL1       -0.5466
     42 O          23.4441   77.9276    0.7872 O.co2   1  UNL1       -0.5466
     43 C          22.3646   77.8722    0.2175 C.2     1  UNL1        0.0799
@<TRIPOS>UNITY_ATOM_ATTR
2 1
charge -1
26 1
charge -1
41 1
charge -1
@<TRIPOS>BOND
     1     1     4    1
     2     1    24    1
     3     1     2    1
     4     1     3    2
     5    25    28    1
     6    25    24    1
     7    25    26    1
     8    25    27    2
     9     6    11    1
    10     6    12    1
    11    29    36    1
    12    29    37    1
    13     7     9    1
    14     7    13    1
    15     8    10    1
    16     8    14    1
    17     4     5    1
    18    28    36    1
    19    30    33    1
    20    30    38    1
    21    31    34    1
    22    31    39    1
    23    32    35    1
    24    32    40    1
    25    41    43   ar
    26    15    19    2
    27    42    43   ar
    28    16    22    2
    29    17    12    1
    30    17    19   ar
    31    17    20   ar
    32    18    19   ar
    33    18    22   ar
    34    18    23    1
    35     9    10    1
    36     9    11    1
    37    10    12    1
    38    11     5    1
    39    33    34    1
    40    33    35    1
    41    34    36    1
    42    35    37    1
    43    37    43    1
    44    20    21   ar
    45    21    22   ar
@<TRIPOS>MOLECULE
*****
 43 45 0 0 0
SMALL
GASTEIGER

@<TRIPOS>ATOM
      1 P          21.8494   72.4415   -5.6638 P.3     1  UNL1        0.2189
      2 O          21.1215   73.8455   -5.3207 O.co2   1  UNL1       -0.4371
      3 O          23.0952   72.5595   -6.4919 O.2     1  UNL1       -0.5170
      4 O          20.6677   71.5359   -6.2974 O.3     1  UNL1       -0.3112
      5 C          20.1061   71.9277   -7.5365 C.3     1  UNL1        0.1811
      6 O          18.8474   69.9201   -7.1331 O.3     1  UNL1       -0.3308
      7 O          18.1070   70.0226  -10.0370 O.3     1  UNL1       -0.3794
      8 O          15.8787   71.0157   -8.8186 O.3     1  UNL1       -0.3779
      9 C          18.2910   71.0954   -9.1130 C.3     1  UNL1        0.1713
     10 C          17.1177   71.1726   -8.1592 C.3     1  UNL1        0.1895
     11 C          19.4353   70.7213   -8.1808 C.3     1  UNL1        0.1764
     12 C          17.4170   70.0348   -7.1982 C.3     1  UNL1        0.2383
     13 H          17.3807   70.2386  -10.6433 H       1  UNL1        0.2105
     14 H          15.7345   71.7649   -9.4184 H       1  UNL1        0.2106
     15 O          16.3463   68.0472   -5.5012 O.2     1  UNL1       -0.2464
     16 O          15.4932   71.1030   -2.1578 O.2     1  UNL1       -0.2670
     17 N          16.9080   70.2833   -5.8791 N.ar    1  UNL1       -0.2551
     18 N          15.9215   69.5712   -3.8380 N.ar    1  UNL1       -0.2743
     19 C          16.3918   69.2146   -5.1088 C.ar    1  UNL1        0.3323
     20 C          16.9248   71.5725   -5.3607 C.ar    1  UNL1        0.0869
     21 C          16.4731   71.8969   -4.1477 C.ar    1  UNL1        0.0795
     22 C          15.9166   70.8389   -3.2791 C.ar    1  UNL1        0.2626
     23 H          15.5555   68.8444   -3.2839 H       1  UNL1        0.1734
     24 O          22.0706   71.7814   -4.2049 O.3     1  UNL1       -0.2703
     25 P          23.2637   71.9604   -3.1288 P.3     1  UNL1        0.2208
     26 O          23.9259   73.3782   -3.5431 O.co2   1  UNL1       -0.4371
     27 O          24.2324   70.8142   -3.0870 O.2     1  UNL1       -0.5170
     28 O          22.5136   72.2543   -1.7311 O.3     1  UNL1       -0.2858
     29 O          23.1929   70.7582   -0.0254 O.3     1  UNL1       -0.3226
     30 O          20.1405   72.8271    1.8375 O.3     1  UNL1       -0.3794
     31 O          19.8636   71.9615   -0.9389 O.3     1  UNL1       -0.3775
     32 O          22.9116   73.4093    2.4954 O.3     1  UNL1       -0.3792
     33 C          21.2360   72.6497    0.9396 C.3     1  UNL1        0.1718
     34 C          20.9031   71.5434   -0.0618 C.3     1  UNL1        0.1968
     35 C          22.4669   72.2678    1.7649 C.3     1  UNL1        0.1723
     36 C          22.1323   71.1671   -0.8901 C.3     1  UNL1        0.2706
     37 C          23.6072   71.7844    0.8735 C.3     1  UNL1        0.1830
     38 H          19.3467   73.0703    1.3354 H       1  UNL1        0.2105
     39 H          19.0805   72.2021   -0.4200 H       1  UNL1        0.2106
     40 H          22.1949   73.7270    3.0666 H       1  UNL1        0.2106
     41 O          25.5234   72.0256    2.2045 O.co2   1  UNL1       -0.5466
     42 O          24.7541   69.9065    1.8632 O.co2   1  UNL1       -0.5466
     43 C          24.6663   71.1121    1.6850 C.2     1  UNL1        0.0799
@<TRIPOS>UNITY_ATOM_ATTR
2 1
charge -1
26 1
charge -1
41 1
charge -1
@<TRIPOS>BOND
     1     1     4    1
     2     1    24    1
     3     1     2    1
     4     1     3    2
     5    25    28    1
     6    25    24    1
     7    25    26    1
     8    25    27    2
     9     6    11    1
    10     6    12    1
    11    29    36    1
    12    29    37    1
    13     7     9    1
    14     7    13    1
    15     8    10    1
    16     8    14    1
    17     4     5    1
    18    28    36    1
    19    30    33    1
    20    30    38    1
    21    31    34    1
    22    31    39    1
    23    32    35    1
    24    32    40    1
    25    41    43   ar
    26    15    19    2
    27    42    43   ar
    28    16    22    2
    29    17    12    1
    30    17    19   ar
    31    17    20   ar
    32    18    19   ar
    33    18    22   ar
    34    18    23    1
    35     9    10    1
    36     9    11    1
    37    10    12    1
    38    11     5    1
    39    33    34    1
    40    33    35    1
    41    34    36    1
    42    35    37    1
    43    37    43    1
    44    20    21   ar
    45    21    22   ar
@<TRIPOS>MOLECULE
*****
 43 45 0 0 0
SMALL
GASTEIGER

@<TRIPOS>ATOM
      1 P          22.4950   72.2038   -1.6407 P.3     1  UNL1        0.2189
      2 O          22.8820   73.7203   -2.0523 O.co2   1  UNL1       -0.4371
      3 O          23.5584   71.1816   -1.9163 O.2     1  UNL1       -0.5170
      4 O          21.0735   71.9535   -2.3720 O.3     1  UNL1       -0.3112
      5 C          20.8445   72.5602   -3.6305 C.3     1  UNL1        0.1811
      6 O          21.0548   70.8259   -5.2815 O.3     1  UNL1       -0.3308
      7 O          23.3653   72.3979   -6.3686 O.3     1  UNL1       -0.3794
      8 O          21.3475   73.0383   -8.0875 O.3     1  UNL1       -0.3779
      9 C          22.1436   72.8655   -5.7965 C.3     1  UNL1        0.1713
     10 C          21.0003   72.6690   -6.7693 C.3     1  UNL1        0.1895
     11 C          21.7639   71.9218   -4.6637 C.3     1  UNL1        0.1764
     12 C          20.7222   71.1817   -6.6328 C.3     1  UNL1        0.2383
     13 H          23.6282   72.9853   -7.0950 H       1  UNL1        0.2105
     14 H          21.5144   73.9938   -8.1222 H       1  UNL1        0.2106
     15 O          18.9762   70.0902   -4.6997 O.2     1  UNL1       -0.2464
     16 O          15.4585   69.9762   -7.6756 O.2     1  UNL1       -0.2670
     17 N          19.3450   70.8572   -6.8755 N.ar    1  UNL1       -0.2551
     18 N          17.2261   70.0335   -6.1840 N.ar    1  UNL1       -0.2743
     19 C          18.5543   70.3129   -5.8360 C.ar    1  UNL1        0.3323
     20 C          18.7907   71.0797   -8.1302 C.ar    1  UNL1        0.0869
     21 C          17.5231   70.8085   -8.4468 C.ar    1  UNL1        0.0795
     22 C          16.6297   70.2368   -7.4179 C.ar    1  UNL1        0.2626
     23 H          16.6566   69.6520   -5.4773 H       1  UNL1        0.1734
     24 O          22.0831   72.3442   -0.0840 O.3     1  UNL1       -0.2703
     25 P          22.2400   71.3145    1.1525 P.3     1  UNL1        0.2208
     26 O          23.8442   71.1605    1.3043 O.co2   1  UNL1       -0.4371
     27 O          21.5087   70.0162    0.9692 O.2     1  UNL1       -0.5170
     28 O          21.7876   72.1604    2.4495 O.3     1  UNL1       -0.2858
     29 O          20.8645   74.3361    2.6033 O.3     1  UNL1       -0.3226
     30 O          23.0454   74.0987    6.1041 O.3     1  UNL1       -0.3794
     31 O          24.1487   73.0759    3.5998 O.3     1  UNL1       -0.3775
     32 O          20.1501   73.8463    6.1686 O.3     1  UNL1       -0.3792
     33 C          22.2559   73.6002    5.0242 C.3     1  UNL1        0.1718
     34 C          22.9716   73.8691    3.7002 C.3     1  UNL1        0.1968
     35 C          20.9052   74.3189    5.0547 C.3     1  UNL1        0.1723
     36 C          22.0595   73.5593    2.5124 C.3     1  UNL1        0.2706
     37 C          20.1076   74.0602    3.7797 C.3     1  UNL1        0.1830
     38 H          23.9088   73.6563    6.1048 H       1  UNL1        0.2105
     39 H          24.7319   73.2672    4.3506 H       1  UNL1        0.2106
     40 H          20.6467   74.0049    6.9866 H       1  UNL1        0.2106
     41 O          17.9445   74.6298    4.4853 O.co2   1  UNL1       -0.5466
     42 O          18.9316   75.9969    2.9504 O.co2   1  UNL1       -0.5466
     43 C          18.9595   75.0100    3.6704 C.2     1  UNL1        0.0799
@<TRIPOS>UNITY_ATOM_ATTR
2 1
charge -1
26 1
charge -1
41 1
charge -1
@<TRIPOS>BOND
     1     1     4    1
     2     1    24    1
     3     1     2    1
     4     1     3    2
     5    25    28    1
     6    25    24    1
     7    25    26    1
     8    25    27    2
     9     6    11    1
    10     6    12    1
    11    29    36    1
    12    29    37    1
    13     7     9    1
    14     7    13    1
    15     8    10    1
    16     8    14    1
    17     4     5    1
    18    28    36    1
    19    30    33    1
    20    30    38    1
    21    31    34    1
    22    31    39    1
    23    32    35    1
    24    32    40    1
    25    41    43   ar
    26    15    19    2
    27    42    43   ar
    28    16    22    2
    29    17    12    1
    30    17    19   ar
    31    17    20   ar
    32    18    19   ar
    33    18    22   ar
    34    18    23    1
    35     9    10    1
    36     9    11    1
    37    10    12    1
    38    11     5    1
    39    33    34    1
    40    33    35    1
    41    34    36    1
    42    35    37    1
    43    37    43    1
    44    20    21   ar
    45    21    22   ar
