@<TRIPOS>MOLECULE
UDP-glaA
 43 45 0 0 0
SMALL
GASTEIGER

@<TRIPOS>ATOM
      1 P          22.9530   71.8291   -3.4206 P.3     1  UNL1        0.2189
      2 O          23.6693   72.8984   -4.4008 O.3     1  UNL1       -0.4371
      3 O          23.7481   70.5850   -3.1521 O.2     1  UNL1       -0.5170
      4 O          21.4974   71.6028   -4.0881 O.3     1  UNL1       -0.3112
      5 C          20.6495   70.6065   -3.5424 C.3     1  UNL1        0.1811
      6 O          18.8837   71.8206   -4.6297 O.3     1  UNL1       -0.3308
      7 O          17.0781   70.7380   -2.4944 O.3     1  UNL1       -0.3794
      8 O          16.5314   69.1146   -4.6161 O.3     1  UNL1       -0.3779
      9 C          18.1866   70.1138   -3.1420 C.3     1  UNL1        0.1713
     10 C          17.8113   69.7091   -4.5519 C.3     1  UNL1        0.1895
     11 C          19.2475   71.1785   -3.3877 C.3     1  UNL1        0.1764
     12 C          17.8765   71.0358   -5.2892 C.3     1  UNL1        0.2383
     13 H          17.3765   71.0144   -1.6112 H       1  UNL1        0.2105
     14 H          16.5412   68.3354   -4.0339 H       1  UNL1        0.2106
     15 O          16.0420   70.4773   -7.3623 O.2     1  UNL1       -0.2464
     16 O          19.3709   70.4522  -10.5493 O.2     1  UNL1       -0.2670
     17 N          18.2361   70.8789   -6.6695 N.ar    1  UNL1       -0.2551
     18 N          17.7009   70.4647   -8.9479 N.ar    1  UNL1       -0.2743
     19 C          17.2383   70.5987   -7.6321 C.ar    1  UNL1        0.3323
     20 C          19.5655   71.0024   -7.0578 C.ar    1  UNL1        0.0869
     21 C          19.9907   70.8723   -8.3164 C.ar    1  UNL1        0.0795
     22 C          19.0124   70.5784   -9.3824 C.ar    1  UNL1        0.2626
     23 H          17.0011   70.2625   -9.6568 H       1  UNL1        0.1734
     24 O          22.6170   72.7103   -2.1069 O.3     1  UNL1       -0.2703
     25 P          23.0031   74.2324   -1.7240 P.3     1  UNL1        0.2208
     26 O          21.8720   75.1044   -2.4833 O.3     1  UNL1       -0.4371
     27 O          24.4145   74.6148   -2.0667 O.2     1  UNL1       -0.5170
     28 O          22.6381   74.3652   -0.1577 O.3     1  UNL1       -0.2858
     29 O          21.5025   72.3631    0.3913 O.3     1  UNL1       -0.3226
     30 O          21.7014   74.2886    4.0700 O.3     1  UNL1       -0.3794
     31 O          21.1042   75.7902    1.6421 O.3     1  UNL1       -0.3775
     32 O          20.9490   71.7952    3.1499 O.3     1  UNL1       -0.3792
     33 C          22.1046   73.8813    2.7654 C.3     1  UNL1        0.1718
     34 C          21.0974   74.3685    1.7183 C.3     1  UNL1        0.1968
     35 C          22.1986   72.3534    2.7307 C.3     1  UNL1        0.1723
     36 C          21.4285   73.7916    0.3363 C.3     1  UNL1        0.2706
     37 C          22.4905   71.8895    1.3053 C.3     1  UNL1        0.1830
     38 H          22.3649   73.9572    4.6989 H       1  UNL1        0.2105
     39 H          20.4604   76.0506    0.9620 H       1  UNL1        0.2106
     40 H          20.3018   71.9143    2.4342 H       1  UNL1        0.2106
     41 O          23.4379   69.8456    1.9601 O.co2   1  UNL1       -0.5466
     42 O          21.6705   69.7575    0.5228 O.co2   1  UNL1       -0.5466
     43 C          22.4627   70.3979    1.1988 C.2     1  UNL1        0.0799
@<TRIPOS>UNITY_ATOM_ATTR
41 1
charge -1
@<TRIPOS>BOND
     1     1     4    1
     2     1    24    1
     3     1     2    1
     4     1     3    2
     5    25    28    1
     6    25    24    1
     7    25    26    1
     8    25    27    2
     9     6    11    1
    10     6    12    1
    11    29    36    1
    12    29    37    1
    13     7     9    1
    14     7    13    1
    15     8    10    1
    16     8    14    1
    17     4     5    1
    18    28    36    1
    19    30    33    1
    20    30    38    1
    21    31    34    1
    22    31    39    1
    23    32    35    1
    24    32    40    1
    25    41    43   ar
    26    15    19    2
    27    42    43   ar
    28    16    22    2
    29    17    12    1
    30    17    19   ar
    31    17    20   ar
    32    18    19   ar
    33    18    22   ar
    34    18    23    1
    35     9    10    1
    36     9    11    1
    37    10    12    1
    38    11     5    1
    39    33    34    1
    40    33    35    1
    41    34    36    1
    42    35    37    1
    43    37    43    1
    44    20    21   ar
    45    21    22   ar
@<TRIPOS>MOLECULE
UDP-glaA
 43 45 0 0 0
SMALL
GASTEIGER

@<TRIPOS>ATOM
      1 P          21.9269   73.8333   -6.0370 P.3     1  UNL1        0.2189
      2 O          22.2394   75.4162   -6.1563 O.3     1  UNL1       -0.4371
      3 O          22.8128   72.9491   -6.8650 O.2     1  UNL1       -0.5170
      4 O          20.3424   73.7248   -6.3423 O.3     1  UNL1       -0.3112
      5 C          19.8153   74.4372   -7.4485 C.3     1  UNL1        0.1811
      6 O          19.6133   72.1136   -8.0266 O.3     1  UNL1       -0.3308
      7 O          17.9538   73.0286  -10.3504 O.3     1  UNL1       -0.3794
      8 O          16.0696   72.1889   -8.5671 O.3     1  UNL1       -0.3779
      9 C          18.0248   73.5587   -9.0270 C.3     1  UNL1        0.1713
     10 C          17.3047   72.6464   -8.0565 C.3     1  UNL1        0.1895
     11 C          19.4687   73.4506   -8.5545 C.3     1  UNL1        0.1764
     12 C          18.3118   71.5242   -7.8715 C.3     1  UNL1        0.2383
     13 H          18.4604   73.6240  -10.9287 H       1  UNL1        0.2105
     14 H          15.5249   72.9713   -8.7605 H       1  UNL1        0.2106
     15 O          16.1206   69.9866   -6.9715 O.2     1  UNL1       -0.2464
     16 O          18.0877   69.2496   -2.8696 O.2     1  UNL1       -0.2670
     17 N          18.2251   70.9183   -6.5735 N.ar    1  UNL1       -0.2551
     18 N          17.1014   69.6211   -4.9293 N.ar    1  UNL1       -0.2743
     19 C          17.0804   70.1664   -6.2198 C.ar    1  UNL1        0.3323
     20 C          19.2672   71.0719   -5.6658 C.ar    1  UNL1        0.0869
     21 C          19.2724   70.5453   -4.4393 C.ar    1  UNL1        0.0795
     22 C          18.1143   69.7468   -3.9912 C.ar    1  UNL1        0.2626
     23 H          16.2884   69.0771   -4.6531 H       1  UNL1        0.1734
     24 O          22.0089   73.5669   -4.4441 O.3     1  UNL1       -0.2703
     25 P          23.2123   73.0031   -3.5239 P.3     1  UNL1        0.2208
     26 O          24.4867   73.8757   -4.0042 O.3     1  UNL1       -0.4371
     27 O          23.4101   71.5168   -3.6113 O.2     1  UNL1       -0.5170
     28 O          22.8815   73.5456   -2.0406 O.3     1  UNL1       -0.2858
     29 O          21.6590   71.8069   -1.0005 O.3     1  UNL1       -0.3226
     30 O          22.0201   74.5789    2.0761 O.3     1  UNL1       -0.3794
     31 O          21.4529   75.4539   -0.6476 O.3     1  UNL1       -0.3775
     32 O          21.1290   71.9773    1.8153 O.3     1  UNL1       -0.3792
     33 C          22.3786   73.8374    0.9133 C.3     1  UNL1        0.1718
     34 C          21.3776   74.0990   -0.2171 C.3     1  UNL1        0.1968
     35 C          22.3967   72.3467    1.2626 C.3     1  UNL1        0.1723
     36 C          21.6545   73.1779   -1.4118 C.3     1  UNL1        0.2706
     37 C          22.6391   71.5262   -0.0023 C.3     1  UNL1        0.1830
     38 H          22.6779   74.3812    2.7644 H       1  UNL1        0.2105
     39 H          20.8103   75.5690   -1.3678 H       1  UNL1        0.2106
     40 H          20.4755   71.9472    1.0962 H       1  UNL1        0.2106
     41 O          23.7359   69.4546    0.0942 O.co2   1  UNL1       -0.5466
     42 O          21.5145   69.4779    0.6059 O.co2   1  UNL1       -0.5466
     43 C          22.5360   70.0589    0.2691 C.2     1  UNL1        0.0799
@<TRIPOS>UNITY_ATOM_ATTR
41 1
charge -1
@<TRIPOS>BOND
     1     1     4    1
     2     1    24    1
     3     1     2    1
     4     1     3    2
     5    25    28    1
     6    25    24    1
     7    25    26    1
     8    25    27    2
     9     6    11    1
    10     6    12    1
    11    29    36    1
    12    29    37    1
    13     7     9    1
    14     7    13    1
    15     8    10    1
    16     8    14    1
    17     4     5    1
    18    28    36    1
    19    30    33    1
    20    30    38    1
    21    31    34    1
    22    31    39    1
    23    32    35    1
    24    32    40    1
    25    41    43   ar
    26    15    19    2
    27    42    43   ar
    28    16    22    2
    29    17    12    1
    30    17    19   ar
    31    17    20   ar
    32    18    19   ar
    33    18    22   ar
    34    18    23    1
    35     9    10    1
    36     9    11    1
    37    10    12    1
    38    11     5    1
    39    33    34    1
    40    33    35    1
    41    34    36    1
    42    35    37    1
    43    37    43    1
    44    20    21   ar
    45    21    22   ar
@<TRIPOS>MOLECULE
UDP-glaA
 43 45 0 0 0
SMALL
GASTEIGER

@<TRIPOS>ATOM
      1 P          22.7165   71.4799   -2.8264 P.3     1  UNL1        0.2189
      2 O          23.0853   72.9309   -3.4393 O.3     1  UNL1       -0.4371
      3 O          23.6194   70.3619   -3.2589 O.2     1  UNL1       -0.5170
      4 O          21.1492   71.2944   -3.1799 O.3     1  UNL1       -0.3112
      5 C          20.4440   72.3944   -3.7294 C.3     1  UNL1        0.1811
      6 O          18.2757   72.3462   -4.7641 O.3     1  UNL1       -0.3308
      7 O          17.3501   70.8710   -2.3231 O.3     1  UNL1       -0.3794
      8 O          17.6646   68.8676   -4.1461 O.3     1  UNL1       -0.3779
      9 C          18.6035   70.7966   -3.0023 C.3     1  UNL1        0.1713
     10 C          18.4534   70.0295   -4.2991 C.3     1  UNL1        0.1895
     11 C          18.9532   72.1939   -3.4972 C.3     1  UNL1        0.1764
     12 C          17.8024   71.0623   -5.2033 C.3     1  UNL1        0.2383
     13 H          17.4865   71.4029   -1.5206 H       1  UNL1        0.2105
     14 H          18.0921   68.3102   -3.4733 H       1  UNL1        0.2106
     15 O          15.9834   70.3056   -7.2267 O.2     1  UNL1       -0.2464
     16 O          19.2627   70.3982  -10.4635 O.2     1  UNL1       -0.2670
     17 N          18.1534   70.8820   -6.5830 N.ar    1  UNL1       -0.2551
     18 N          17.6177   70.3517   -8.8371 N.ar    1  UNL1       -0.2743
     19 C          17.1646   70.4999   -7.5195 C.ar    1  UNL1        0.3323
     20 C          19.4657   71.0833   -6.9964 C.ar    1  UNL1        0.0869
     21 C          19.8818   70.9385   -8.2565 C.ar    1  UNL1        0.0795
     22 C          18.9121   70.5404   -9.2961 C.ar    1  UNL1        0.2626
     23 H          16.9241   70.0769   -9.5274 H       1  UNL1        0.1734
     24 O          22.6993   71.7535   -1.2326 O.3     1  UNL1       -0.2703
     25 P          22.4151   70.7604    0.0106 P.3     1  UNL1        0.2208
     26 O          23.7119   69.7938    0.0175 O.3     1  UNL1       -0.4371
     27 O          21.1020   70.0355   -0.0678 O.2     1  UNL1       -0.5170
     28 O          22.5885   71.6858    1.3211 O.3     1  UNL1       -0.2858
     29 O          21.7442   72.3619    3.4258 O.3     1  UNL1       -0.3226
     30 O          21.0409   75.7239    1.0844 O.3     1  UNL1       -0.3794
     31 O          20.5740   73.0505    0.0164 O.3     1  UNL1       -0.3775
     32 O          20.8798   75.0778    3.7652 O.3     1  UNL1       -0.3792
     33 C          21.7037   74.5539    1.5558 C.3     1  UNL1        0.1718
     34 C          20.8007   73.3264    1.3945 C.3     1  UNL1        0.1968
     35 C          22.0638   74.7492    3.0312 C.3     1  UNL1        0.1723
     36 C          21.4346   72.0953    2.0539 C.3     1  UNL1        0.2706
     37 C          22.6467   73.4543    3.5929 C.3     1  UNL1        0.1830
     38 H          21.6469   76.4743    1.2079 H       1  UNL1        0.2105
     39 H          20.0072   72.2625   -0.0357 H       1  UNL1        0.2106
     40 H          20.3395   74.2746    3.8556 H       1  UNL1        0.2106
     41 O          24.1365   74.0377    5.3087 O.co2   1  UNL1       -0.5466
     42 O          22.0877   73.2572    5.9335 O.co2   1  UNL1       -0.5466
     43 C          22.8931   73.5582    5.0644 C.2     1  UNL1        0.0799
@<TRIPOS>UNITY_ATOM_ATTR
41 1
charge -1
@<TRIPOS>BOND
     1     1     4    1
     2     1    24    1
     3     1     2    1
     4     1     3    2
     5    25    28    1
     6    25    24    1
     7    25    26    1
     8    25    27    2
     9     6    11    1
    10     6    12    1
    11    29    36    1
    12    29    37    1
    13     7     9    1
    14     7    13    1
    15     8    10    1
    16     8    14    1
    17     4     5    1
    18    28    36    1
    19    30    33    1
    20    30    38    1
    21    31    34    1
    22    31    39    1
    23    32    35    1
    24    32    40    1
    25    41    43   ar
    26    15    19    2
    27    42    43   ar
    28    16    22    2
    29    17    12    1
    30    17    19   ar
    31    17    20   ar
    32    18    19   ar
    33    18    22   ar
    34    18    23    1
    35     9    10    1
    36     9    11    1
    37    10    12    1
    38    11     5    1
    39    33    34    1
    40    33    35    1
    41    34    36    1
    42    35    37    1
    43    37    43    1
    44    20    21   ar
    45    21    22   ar
@<TRIPOS>MOLECULE
UDP-glaA
 43 45 0 0 0
SMALL
GASTEIGER

@<TRIPOS>ATOM
      1 P          22.0267   71.4782   -1.3084 P.3     1  UNL1        0.2189
      2 O          23.1879   70.4615   -1.7935 O.3     1  UNL1       -0.4371
      3 O          20.9836   70.8692   -0.4178 O.2     1  UNL1       -0.5170
      4 O          21.4819   72.1322   -2.6836 O.3     1  UNL1       -0.3112
      5 C          20.7024   71.3291   -3.5534 C.3     1  UNL1        0.1811
      6 O          18.7707   72.1996   -4.6870 O.3     1  UNL1       -0.3308
      7 O          17.1631   71.0628   -2.4254 O.3     1  UNL1       -0.3794
      8 O          16.8114   69.2109   -4.3958 O.3     1  UNL1       -0.3779
      9 C          18.3365   70.5428   -3.0502 C.3     1  UNL1        0.1713
     10 C          17.9986   69.9762   -4.4130 C.3     1  UNL1        0.1895
     11 C          19.2379   71.7172   -3.4078 C.3     1  UNL1        0.1764
     12 C          17.8704   71.2342   -5.2551 C.3     1  UNL1        0.2383
     13 H          17.4343   71.4489   -1.5752 H       1  UNL1        0.2105
     14 H          16.9365   68.4909   -3.7539 H       1  UNL1        0.2106
     15 O          16.0682   70.3801   -7.2546 O.2     1  UNL1       -0.2464
     16 O          19.3515   70.4198  -10.4882 O.2     1  UNL1       -0.2670
     17 N          18.2270   71.0139   -6.6275 N.ar    1  UNL1       -0.2551
     18 N          17.7045   70.3999   -8.8633 N.ar    1  UNL1       -0.2743
     19 C          17.2465   70.5842   -7.5521 C.ar    1  UNL1        0.3323
     20 C          19.5365   71.2233   -7.0457 C.ar    1  UNL1        0.0869
     21 C          19.9574   71.0436   -8.2996 C.ar    1  UNL1        0.0795
     22 C          18.9964   70.5949   -9.3267 C.ar    1  UNL1        0.2626
     23 H          17.0169   70.0906   -9.5451 H       1  UNL1        0.1734
     24 O          22.8624   72.6888   -0.6368 O.3     1  UNL1       -0.2703
     25 P          22.5261   73.6343    0.6303 P.3     1  UNL1        0.2208
     26 O          22.5724   72.6095    1.8808 O.3     1  UNL1       -0.4371
     27 O          21.2402   74.3999    0.5034 O.2     1  UNL1       -0.5170
     28 O          23.8369   74.5581    0.8106 O.3     1  UNL1       -0.2858
     29 O          23.9254   75.7345    2.8618 O.3     1  UNL1       -0.3226
     30 O          27.0560   77.4544    0.7357 O.3     1  UNL1       -0.3794
     31 O          24.5306   76.8366   -0.5859 O.3     1  UNL1       -0.3775
     32 O          26.0972   77.5532    3.3243 O.3     1  UNL1       -0.3792
     33 C          26.1544   76.4441    1.1792 C.3     1  UNL1        0.1718
     34 C          24.7120   76.8224    0.8261 C.3     1  UNL1        0.1968
     35 C          26.2977   76.2833    2.6952 C.3     1  UNL1        0.1723
     36 C          23.7222   75.8295    1.4481 C.3     1  UNL1        0.2706
     37 C          25.2415   75.3077    3.2099 C.3     1  UNL1        0.1830
     38 H          27.9542   77.1747    0.9819 H       1  UNL1        0.2105
     39 H          23.6035   77.0711   -0.7602 H       1  UNL1        0.2106
     40 H          25.1494   77.7673    3.2928 H       1  UNL1        0.2106
     41 O          25.7114   74.0061    5.1043 O.co2   1  UNL1       -0.5466
     42 O          24.9195   76.1135    5.4630 O.co2   1  UNL1       -0.5466
     43 C          25.2600   75.2188    4.7027 C.2     1  UNL1        0.0799
@<TRIPOS>UNITY_ATOM_ATTR
41 1
charge -1
@<TRIPOS>BOND
     1     1     4    1
     2     1    24    1
     3     1     2    1
     4     1     3    2
     5    25    28    1
     6    25    24    1
     7    25    26    1
     8    25    27    2
     9     6    11    1
    10     6    12    1
    11    29    36    1
    12    29    37    1
    13     7     9    1
    14     7    13    1
    15     8    10    1
    16     8    14    1
    17     4     5    1
    18    28    36    1
    19    30    33    1
    20    30    38    1
    21    31    34    1
    22    31    39    1
    23    32    35    1
    24    32    40    1
    25    41    43   ar
    26    15    19    2
    27    42    43   ar
    28    16    22    2
    29    17    12    1
    30    17    19   ar
    31    17    20   ar
    32    18    19   ar
    33    18    22   ar
    34    18    23    1
    35     9    10    1
    36     9    11    1
    37    10    12    1
    38    11     5    1
    39    33    34    1
    40    33    35    1
    41    34    36    1
    42    35    37    1
    43    37    43    1
    44    20    21   ar
    45    21    22   ar
@<TRIPOS>MOLECULE
UDP-glaA
 43 45 0 0 0
SMALL
GASTEIGER

@<TRIPOS>ATOM
      1 P          22.9896   72.1266   -2.8879 P.3     1  UNL1        0.2189
      2 O          23.4780   70.6168   -3.2032 O.3     1  UNL1       -0.4371
      3 O          23.0299   72.5152   -1.4389 O.2     1  UNL1       -0.5170
      4 O          21.5420   72.2251   -3.6021 O.3     1  UNL1       -0.3112
      5 C          20.7164   71.0731   -3.6216 C.3     1  UNL1        0.1811
      6 O          18.8131   72.0305   -4.7329 O.3     1  UNL1       -0.3308
      7 O          17.1691   70.8835   -2.5029 O.3     1  UNL1       -0.3794
      8 O          16.7648   69.0953   -4.5216 O.3     1  UNL1       -0.3779
      9 C          18.3273   70.3451   -3.1405 C.3     1  UNL1        0.1713
     10 C          17.9745   69.8248   -4.5180 C.3     1  UNL1        0.1895
     11 C          19.2639   71.5010   -3.4667 C.3     1  UNL1        0.1764
     12 C          17.8851   71.1078   -5.3267 C.3     1  UNL1        0.2383
     13 H          17.4507   71.2388   -1.6427 H       1  UNL1        0.2105
     14 H          16.8675   68.3552   -3.8987 H       1  UNL1        0.2106
     15 O          16.0633   70.3483   -7.3465 O.2     1  UNL1       -0.2464
     16 O          19.3481   70.3877  -10.5788 O.2     1  UNL1       -0.2670
     17 N          18.2368   70.9130   -6.7043 N.ar    1  UNL1       -0.2551
     18 N          17.7003   70.3679   -8.9546 N.ar    1  UNL1       -0.2743
     19 C          17.2464   70.5307   -7.6391 C.ar    1  UNL1        0.3323
     20 C          19.5512   71.1005   -7.1173 C.ar    1  UNL1        0.0869
     21 C          19.9681   70.9418   -8.3754 C.ar    1  UNL1        0.0795
     22 C          18.9968   70.5425   -9.4132 C.ar    1  UNL1        0.2626
     23 H          17.0057   70.0927   -9.6437 H       1  UNL1        0.1734
     24 O          23.9316   73.0208   -3.8514 O.3     1  UNL1       -0.2703
     25 P          24.1464   74.6205   -3.9362 P.3     1  UNL1        0.2208
     26 O          25.7543   74.7751   -4.0186 O.3     1  UNL1       -0.4371
     27 O          23.5064   75.3883   -2.8152 O.2     1  UNL1       -0.5170
     28 O          23.6212   75.0262   -5.4071 O.3     1  UNL1       -0.2858
     29 O          21.6580   76.1587   -6.0873 O.3     1  UNL1       -0.3226
     30 O          22.2690   73.5093   -9.2317 O.3     1  UNL1       -0.3794
     31 O          22.6869   72.6573   -6.4739 O.3     1  UNL1       -0.3775
     32 O          20.5961   75.6430   -8.7036 O.3     1  UNL1       -0.3792
     33 C          22.5956   74.3984   -8.1671 C.3     1  UNL1        0.1718
     34 C          22.0388   73.8708   -6.8404 C.3     1  UNL1        0.1968
     35 C          22.0025   75.7764   -8.4732 C.3     1  UNL1        0.1723
     36 C          22.2349   74.9009   -5.7211 C.3     1  UNL1        0.2706
     37 C          22.2190   76.7048   -7.2801 C.3     1  UNL1        0.1830
     38 H          22.6380   73.8833  -10.0499 H       1  UNL1        0.2105
     39 H          22.3095   72.3677   -5.6262 H       1  UNL1        0.2106
     40 H          20.1569   75.4852   -7.8508 H       1  UNL1        0.2106
     41 O          21.2875   78.6180   -6.2923 O.co2   1  UNL1       -0.5466
     42 O          21.2576   78.5059   -8.5690 O.co2   1  UNL1       -0.5466
     43 C          21.5422   78.0231   -7.4826 C.2     1  UNL1        0.0799
@<TRIPOS>UNITY_ATOM_ATTR
41 1
charge -1
@<TRIPOS>BOND
     1     1     4    1
     2     1    24    1
     3     1     2    1
     4     1     3    2
     5    25    28    1
     6    25    24    1
     7    25    26    1
     8    25    27    2
     9     6    11    1
    10     6    12    1
    11    29    36    1
    12    29    37    1
    13     7     9    1
    14     7    13    1
    15     8    10    1
    16     8    14    1
    17     4     5    1
    18    28    36    1
    19    30    33    1
    20    30    38    1
    21    31    34    1
    22    31    39    1
    23    32    35    1
    24    32    40    1
    25    41    43   ar
    26    15    19    2
    27    42    43   ar
    28    16    22    2
    29    17    12    1
    30    17    19   ar
    31    17    20   ar
    32    18    19   ar
    33    18    22   ar
    34    18    23    1
    35     9    10    1
    36     9    11    1
    37    10    12    1
    38    11     5    1
    39    33    34    1
    40    33    35    1
    41    34    36    1
    42    35    37    1
    43    37    43    1
    44    20    21   ar
    45    21    22   ar
@<TRIPOS>MOLECULE
UDP-glaA
 43 45 0 0 0
SMALL
GASTEIGER

@<TRIPOS>ATOM
      1 P          20.1415   71.4869   -4.6840 P.3     1  UNL1        0.2189
      2 O          20.5361   71.3902   -6.2500 O.3     1  UNL1       -0.4371
      3 O          20.2613   70.2006   -3.9205 O.2     1  UNL1       -0.5170
      4 O          18.6732   72.1648   -4.6932 O.3     1  UNL1       -0.3112
      5 C          18.3589   73.1138   -3.6883 C.3     1  UNL1        0.1811
      6 O          18.4183   74.4603   -5.6777 O.3     1  UNL1       -0.3308
      7 O          15.9315   75.7739   -4.6379 O.3     1  UNL1       -0.3794
      8 O          14.9537   74.0357   -6.4975 O.3     1  UNL1       -0.3779
      9 C          16.3423   74.4106   -4.5374 C.3     1  UNL1        0.1713
     10 C          16.1781   73.7130   -5.8712 C.3     1  UNL1        0.1895
     11 C          17.8536   74.3880   -4.3499 C.3     1  UNL1        0.1764
     12 C          17.3820   74.2231   -6.6447 C.3     1  UNL1        0.2383
     13 H          16.0909   76.1891   -3.7731 H       1  UNL1        0.2105
     14 H          14.2379   73.7765   -5.8921 H       1  UNL1        0.2106
     15 O          16.3093   71.6344   -6.9962 O.2     1  UNL1       -0.2464
     16 O          19.2758   70.6669  -10.3876 O.2     1  UNL1       -0.2670
     17 N          17.8542   73.2742   -7.6122 N.ar    1  UNL1       -0.2551
     18 N          17.7875   71.1541   -8.6844 N.ar    1  UNL1       -0.2743
     19 C          17.2471   72.0002   -7.7071 C.ar    1  UNL1        0.3323
     20 C          18.9084   73.6096   -8.4546 C.ar    1  UNL1        0.0869
     21 C          19.4121   72.7919   -9.3818 C.ar    1  UNL1        0.0795
     22 C          18.8353   71.4427   -9.5450 C.ar    1  UNL1        0.2626
     23 H          17.3670   70.2328   -8.7701 H       1  UNL1        0.1734
     24 O          21.0894   72.6810   -4.1447 O.3     1  UNL1       -0.2703
     25 P          22.5746   72.6503   -3.5078 P.3     1  UNL1        0.2208
     26 O          23.3328   73.8550   -4.2760 O.3     1  UNL1       -0.4371
     27 O          23.2620   71.3190   -3.6118 O.2     1  UNL1       -0.5170
     28 O          22.3832   73.1855   -1.9976 O.3     1  UNL1       -0.2858
     29 O          21.5074   71.4435   -0.6567 O.3     1  UNL1       -0.3226
     30 O          21.6662   74.6132    2.0279 O.3     1  UNL1       -0.3794
     31 O          20.7877   75.0415   -0.7199 O.3     1  UNL1       -0.3775
     32 O          21.1550   71.9016    2.1548 O.3     1  UNL1       -0.3792
     33 C          22.0491   73.7844    0.9339 C.3     1  UNL1        0.1718
     34 C          20.9442   73.7564   -0.1276 C.3     1  UNL1        0.1968
     35 C          22.3123   72.3684    1.4537 C.3     1  UNL1        0.1723
     36 C          21.2710   72.7359   -1.2249 C.3     1  UNL1        0.2706
     37 C          22.5852   71.4327    0.2780 C.3     1  UNL1        0.1830
     38 H          22.3923   74.5993    2.6746 H       1  UNL1        0.2105
     39 H          20.0866   74.9724   -1.3896 H       1  UNL1        0.2106
     40 H          20.4647   71.6885    1.5041 H       1  UNL1        0.2106
     41 O          23.4333   69.9414    1.8783 O.co2   1  UNL1       -0.5466
     42 O          22.2514   69.0450    0.1472 O.co2   1  UNL1       -0.5466
     43 C          22.7200   70.0129    0.7286 C.2     1  UNL1        0.0799
@<TRIPOS>UNITY_ATOM_ATTR
41 1
charge -1
@<TRIPOS>BOND
     1     1     4    1
     2     1    24    1
     3     1     2    1
     4     1     3    2
     5    25    28    1
     6    25    24    1
     7    25    26    1
     8    25    27    2
     9     6    11    1
    10     6    12    1
    11    29    36    1
    12    29    37    1
    13     7     9    1
    14     7    13    1
    15     8    10    1
    16     8    14    1
    17     4     5    1
    18    28    36    1
    19    30    33    1
    20    30    38    1
    21    31    34    1
    22    31    39    1
    23    32    35    1
    24    32    40    1
    25    41    43   ar
    26    15    19    2
    27    42    43   ar
    28    16    22    2
    29    17    12    1
    30    17    19   ar
    31    17    20   ar
    32    18    19   ar
    33    18    22   ar
    34    18    23    1
    35     9    10    1
    36     9    11    1
    37    10    12    1
    38    11     5    1
    39    33    34    1
    40    33    35    1
    41    34    36    1
    42    35    37    1
    43    37    43    1
    44    20    21   ar
    45    21    22   ar
@<TRIPOS>MOLECULE
UDP-glaA
 43 45 0 0 0
SMALL
GASTEIGER

@<TRIPOS>ATOM
      1 P          19.6236   71.1811   -4.5078 P.3     1  UNL1        0.2189
      2 O          20.0032   69.6936   -3.9970 O.3     1  UNL1       -0.4371
      3 O          18.5793   71.8837   -3.6906 O.2     1  UNL1       -0.5170
      4 O          19.2719   70.9776   -6.0732 O.3     1  UNL1       -0.3112
      5 C          17.9600   70.5727   -6.4257 C.3     1  UNL1        0.1811
      6 O          16.3773   71.4605   -8.0009 O.3     1  UNL1       -0.3308
      7 O          18.7122   71.8542   -9.8407 O.3     1  UNL1       -0.3794
      8 O          18.3076   74.3612   -8.8472 O.3     1  UNL1       -0.3779
      9 C          18.6475   71.9918   -8.4214 C.3     1  UNL1        0.1713
     10 C          17.9142   73.2634   -8.0499 C.3     1  UNL1        0.1895
     11 C          17.7107   70.9161   -7.8874 C.3     1  UNL1        0.1764
     12 C          16.4643   72.8687   -8.2740 C.3     1  UNL1        0.2383
     13 H          19.1543   71.0090  -10.0301 H       1  UNL1        0.2105
     14 H          19.2660   74.4793   -8.7303 H       1  UNL1        0.2106
     15 O          14.2369   74.3662   -9.1523 O.2     1  UNL1       -0.2464
     16 O          13.0819   75.5195   -4.8425 O.2     1  UNL1       -0.2670
     17 N          15.5645   73.5699   -7.4034 N.ar    1  UNL1       -0.2551
     18 N          13.6635   74.9399   -7.0057 N.ar    1  UNL1       -0.2743
     19 C          14.4767   74.2934   -7.9458 C.ar    1  UNL1        0.3323
     20 C          15.7642   73.5366   -6.0277 C.ar    1  UNL1        0.0869
     21 C          14.9796   74.1579   -5.1444 C.ar    1  UNL1        0.0795
     22 C          13.8222   74.9362   -5.6285 C.ar    1  UNL1        0.2626
     23 H          12.8757   75.4667   -7.3729 H       1  UNL1        0.1734
     24 O          21.0582   71.9261   -4.5518 O.3     1  UNL1       -0.2703
     25 P          22.3332   71.8309   -3.5629 P.3     1  UNL1        0.2208
     26 O          23.4819   72.6450   -4.3589 O.3     1  UNL1       -0.4371
     27 O          22.7160   70.4287   -3.1847 O.2     1  UNL1       -0.5170
     28 O          21.9529   72.7782   -2.3131 O.3     1  UNL1       -0.2858
     29 O          21.2820   71.1613   -0.7209 O.3     1  UNL1       -0.3226
     30 O          21.4914   74.6161    1.5813 O.3     1  UNL1       -0.3794
     31 O          20.3710   74.6949   -1.1103 O.3     1  UNL1       -0.3775
     32 O          21.1356   71.9163    2.0444 O.3     1  UNL1       -0.3792
     33 C          21.8272   73.6872    0.5543 C.3     1  UNL1        0.1718
     34 C          20.6427   73.4924   -0.3983 C.3     1  UNL1        0.1968
     35 C          22.2059   72.3513    1.1994 C.3     1  UNL1        0.1723
     36 C          20.9324   72.3703   -1.4029 C.3     1  UNL1        0.2706
     37 C          22.4313   71.3022    0.1127 C.3     1  UNL1        0.1830
     38 H          22.2673   74.7064    2.1604 H       1  UNL1        0.2105
     39 H          19.6224   74.5208   -1.7054 H       1  UNL1        0.2106
     40 H          20.4069   71.6018    1.4829 H       1  UNL1        0.2106
     41 O          23.3583   70.0510    1.8673 O.co2   1  UNL1       -0.5466
     42 O          22.3132   68.8924    0.2052 O.co2   1  UNL1       -0.5466
     43 C          22.6768   69.9492    0.7007 C.2     1  UNL1        0.0799
@<TRIPOS>UNITY_ATOM_ATTR
41 1
charge -1
@<TRIPOS>BOND
     1     1     4    1
     2     1    24    1
     3     1     2    1
     4     1     3    2
     5    25    28    1
     6    25    24    1
     7    25    26    1
     8    25    27    2
     9     6    11    1
    10     6    12    1
    11    29    36    1
    12    29    37    1
    13     7     9    1
    14     7    13    1
    15     8    10    1
    16     8    14    1
    17     4     5    1
    18    28    36    1
    19    30    33    1
    20    30    38    1
    21    31    34    1
    22    31    39    1
    23    32    35    1
    24    32    40    1
    25    41    43   ar
    26    15    19    2
    27    42    43   ar
    28    16    22    2
    29    17    12    1
    30    17    19   ar
    31    17    20   ar
    32    18    19   ar
    33    18    22   ar
    34    18    23    1
    35     9    10    1
    36     9    11    1
    37    10    12    1
    38    11     5    1
    39    33    34    1
    40    33    35    1
    41    34    36    1
    42    35    37    1
    43    37    43    1
    44    20    21   ar
    45    21    22   ar
@<TRIPOS>MOLECULE
UDP-glaA
 43 45 0 0 0
SMALL
GASTEIGER

@<TRIPOS>ATOM
      1 P          19.9884   72.3029   -4.4421 P.3     1  UNL1        0.2189
      2 O          19.6316   71.0629   -5.4179 O.3     1  UNL1       -0.4371
      3 O          18.9747   72.5768   -3.3699 O.2     1  UNL1       -0.5170
      4 O          20.2845   73.5258   -5.4582 O.3     1  UNL1       -0.3112
      5 C          21.6148   73.7299   -5.9030 C.3     1  UNL1        0.1811
      6 O          20.9188   73.0520   -8.1008 O.3     1  UNL1       -0.3308
      7 O          21.2777   75.9209   -8.8958 O.3     1  UNL1       -0.3794
      8 O          18.5771   75.7259   -8.5723 O.3     1  UNL1       -0.3779
      9 C          20.8049   75.3775   -7.6633 C.3     1  UNL1        0.1713
     10 C          19.3964   74.8473   -7.8291 C.3     1  UNL1        0.1895
     11 C          21.5927   74.1057   -7.3778 C.3     1  UNL1        0.1764
     12 C          19.6375   73.5286   -8.5440 C.3     1  UNL1        0.2383
     13 H          22.1944   76.2114   -8.7517 H       1  UNL1        0.2105
     14 H          18.5625   76.5786   -8.1045 H       1  UNL1        0.2106
     15 O          19.6015   70.9049   -9.5881 O.2     1  UNL1       -0.2464
     16 O          15.7581   69.8422   -7.2778 O.2     1  UNL1       -0.2670
     17 N          18.6399   72.5454   -8.2319 N.ar    1  UNL1       -0.2551
     18 N          17.6874   70.3776   -8.4374 N.ar    1  UNL1       -0.2743
     19 C          18.7126   71.2568   -8.8105 C.ar    1  UNL1        0.3323
     20 C          17.6032   72.8621   -7.3611 C.ar    1  UNL1        0.0869
     21 C          16.6335   72.0126   -7.0148 C.ar    1  UNL1        0.0795
     22 C          16.6355   70.6469   -7.5755 C.ar    1  UNL1        0.2626
     23 H          17.7191   69.4456   -8.8417 H       1  UNL1        0.1734
     24 O          21.4613   71.9210   -3.8946 O.3     1  UNL1       -0.2703
     25 P          21.9418   70.7902   -2.8443 P.3     1  UNL1        0.2208
     26 O          23.5489   70.7742   -3.0257 O.3     1  UNL1       -0.4371
     27 O          21.2831   69.4538   -3.0338 O.2     1  UNL1       -0.5170
     28 O          21.7012   71.4521   -1.3924 O.3     1  UNL1       -0.2858
     29 O          23.3251   72.8697   -0.4163 O.3     1  UNL1       -0.3226
     30 O          21.0549   71.7470    2.8799 O.3     1  UNL1       -0.3794
     31 O          21.7388   69.7997    0.8192 O.3     1  UNL1       -0.3775
     32 O          23.0800   73.5524    2.3608 O.3     1  UNL1       -0.3792
     33 C          21.3462   72.0910    1.5282 C.3     1  UNL1        0.1718
     34 C          22.3347   71.0886    0.9228 C.3     1  UNL1        0.1968
     35 C          21.9425   73.5008    1.4934 C.3     1  UNL1        0.1723
     36 C          22.7862   71.5447   -0.4702 C.3     1  UNL1        0.2706
     37 C          22.3927   73.8328    0.0724 C.3     1  UNL1        0.1830
     38 H          20.4293   72.4079    3.2225 H       1  UNL1        0.2105
     39 H          22.3965   69.2034    0.4233 H       1  UNL1        0.2106
     40 H          23.8140   73.0768    1.9362 H       1  UNL1        0.2106
     41 O          24.2306   75.0543   -0.7236 O.co2   1  UNL1       -0.5466
     42 O          22.7144   76.1762    0.5568 O.co2   1  UNL1       -0.5466
     43 C          23.0994   75.1497    0.0159 C.2     1  UNL1        0.0799
@<TRIPOS>UNITY_ATOM_ATTR
41 1
charge -1
@<TRIPOS>BOND
     1     1     4    1
     2     1    24    1
     3     1     2    1
     4     1     3    2
     5    25    28    1
     6    25    24    1
     7    25    26    1
     8    25    27    2
     9     6    11    1
    10     6    12    1
    11    29    36    1
    12    29    37    1
    13     7     9    1
    14     7    13    1
    15     8    10    1
    16     8    14    1
    17     4     5    1
    18    28    36    1
    19    30    33    1
    20    30    38    1
    21    31    34    1
    22    31    39    1
    23    32    35    1
    24    32    40    1
    25    41    43   ar
    26    15    19    2
    27    42    43   ar
    28    16    22    2
    29    17    12    1
    30    17    19   ar
    31    17    20   ar
    32    18    19   ar
    33    18    22   ar
    34    18    23    1
    35     9    10    1
    36     9    11    1
    37    10    12    1
    38    11     5    1
    39    33    34    1
    40    33    35    1
    41    34    36    1
    42    35    37    1
    43    37    43    1
    44    20    21   ar
    45    21    22   ar
@<TRIPOS>MOLECULE
UDP-glaA
 43 45 0 0 0
SMALL
GASTEIGER

@<TRIPOS>ATOM
      1 P          22.3491   73.3150   -5.2377 P.3     1  UNL1        0.2189
      2 O          22.8247   74.7444   -5.8276 O.3     1  UNL1       -0.4371
      3 O          23.4180   72.5350   -4.5300 O.2     1  UNL1       -0.5170
      4 O          21.6640   72.5791   -6.5045 O.3     1  UNL1       -0.3112
      5 C          20.8914   73.3567   -7.4032 C.3     1  UNL1        0.1811
      6 O          20.0517   71.1386   -7.7901 O.3     1  UNL1       -0.3308
      7 O          18.5261   72.3185  -10.0861 O.3     1  UNL1       -0.3794
      8 O          16.6202   72.1152   -8.1465 O.3     1  UNL1       -0.3779
      9 C          18.8264   72.8895   -8.8127 C.3     1  UNL1        0.1713
     10 C          17.9649   72.2599   -7.7385 C.3     1  UNL1        0.1895
     11 C          20.2224   72.4322   -8.4104 C.3     1  UNL1        0.1764
     12 C          18.6563   70.9246   -7.5216 C.3     1  UNL1        0.2383
     13 H          19.1276   72.7230  -10.7343 H       1  UNL1        0.2105
     14 H          16.2853   73.0006   -8.3701 H       1  UNL1        0.2106
     15 O          16.3214   69.6934   -6.5175 O.2     1  UNL1       -0.2464
     16 O          18.1990   69.1145   -2.3488 O.2     1  UNL1       -0.2670
     17 N          18.5077   70.4422   -6.1782 N.ar    1  UNL1       -0.2551
     18 N          17.2578   69.4064   -4.4422 N.ar    1  UNL1       -0.2743
     19 C          17.2932   69.8401   -5.7741 C.ar    1  UNL1        0.3323
     20 C          19.5585   70.5680   -5.2764 C.ar    1  UNL1        0.0869
     21 C          19.5093   70.1490   -4.0099 C.ar    1  UNL1        0.0795
     22 C          18.2767   69.5100   -3.5080 C.ar    1  UNL1        0.2626
     23 H          16.3942   68.9710   -4.1294 H       1  UNL1        0.1734
     24 O          21.0798   73.7078   -4.3159 O.3     1  UNL1       -0.2703
     25 P          20.9903   74.1250   -2.7569 P.3     1  UNL1        0.2208
     26 O          19.4113   74.3964   -2.5354 O.3     1  UNL1       -0.4371
     27 O          21.8767   75.2759   -2.3754 O.2     1  UNL1       -0.5170
     28 O          21.2870   72.7592   -1.9503 O.3     1  UNL1       -0.2858
     29 O          22.2582   73.2814    0.1433 O.3     1  UNL1       -0.3226
     30 O          22.2872   69.1248    0.1822 O.3     1  UNL1       -0.3794
     31 O          22.9672   70.5886   -2.2470 O.3     1  UNL1       -0.3775
     32 O          22.8095   71.1507    1.9858 O.3     1  UNL1       -0.3792
     33 C          21.8284   70.4429   -0.1049 C.3     1  UNL1        0.1718
     34 C          22.8548   71.1912   -0.9621 C.3     1  UNL1        0.1968
     35 C          21.6046   71.1877    1.2140 C.3     1  UNL1        0.1723
     36 C          22.4520   72.6613   -1.1322 C.3     1  UNL1        0.2706
     37 C          21.2497   72.6450    0.9267 C.3     1  UNL1        0.1830
     38 H          21.6091   68.6904    0.7272 H       1  UNL1        0.2105
     39 H          23.6189   71.1004   -2.7551 H       1  UNL1        0.2106
     40 H          23.4519   71.7606    1.5851 H       1  UNL1        0.2106
     41 O          20.8236   72.6451    3.2337 O.co2   1  UNL1       -0.5466
     42 O          21.3365   74.6477    2.2725 O.co2   1  UNL1       -0.5466
     43 C          21.1492   73.4426    2.1879 C.2     1  UNL1        0.0799
@<TRIPOS>UNITY_ATOM_ATTR
41 1
charge -1
@<TRIPOS>BOND
     1     1     4    1
     2     1    24    1
     3     1     2    1
     4     1     3    2
     5    25    28    1
     6    25    24    1
     7    25    26    1
     8    25    27    2
     9     6    11    1
    10     6    12    1
    11    29    36    1
    12    29    37    1
    13     7     9    1
    14     7    13    1
    15     8    10    1
    16     8    14    1
    17     4     5    1
    18    28    36    1
    19    30    33    1
    20    30    38    1
    21    31    34    1
    22    31    39    1
    23    32    35    1
    24    32    40    1
    25    41    43   ar
    26    15    19    2
    27    42    43   ar
    28    16    22    2
    29    17    12    1
    30    17    19   ar
    31    17    20   ar
    32    18    19   ar
    33    18    22   ar
    34    18    23    1
    35     9    10    1
    36     9    11    1
    37    10    12    1
    38    11     5    1
    39    33    34    1
    40    33    35    1
    41    34    36    1
    42    35    37    1
    43    37    43    1
    44    20    21   ar
    45    21    22   ar
@<TRIPOS>MOLECULE
UDP-glaA
 43 45 0 0 0
SMALL
GASTEIGER

@<TRIPOS>ATOM
      1 P          19.3064   70.9895   -4.2642 P.3     1  UNL1        0.2189
      2 O          18.5251   69.5740   -4.2065 O.3     1  UNL1       -0.4371
      3 O          18.6138   72.1237   -3.5672 O.2     1  UNL1       -0.5170
      4 O          19.6016   71.2077   -5.8393 O.3     1  UNL1       -0.3112
      5 C          18.6065   70.8271   -6.7741 C.3     1  UNL1        0.1811
      6 O          18.5842   73.2181   -7.0131 O.3     1  UNL1       -0.3308
      7 O          16.0560   72.8504   -8.5829 O.3     1  UNL1       -0.3794
      8 O          17.9224   73.2166  -10.5370 O.3     1  UNL1       -0.3779
      9 C          17.2195   72.0245   -8.5381 C.3     1  UNL1        0.1713
     10 C          18.3524   72.6710   -9.3069 C.3     1  UNL1        0.1895
     11 C          17.7524   72.0410   -7.1114 C.3     1  UNL1        0.1764
     12 C          18.8297   73.7338   -8.3318 C.3     1  UNL1        0.2383
     13 H          15.3714   72.4160   -8.0462 H       1  UNL1        0.2105
     14 H          17.5324   72.4933  -11.0576 H       1  UNL1        0.2106
     15 O          20.7521   71.8670   -9.2234 O.2     1  UNL1       -0.2464
     16 O          24.1760   74.9254   -8.8211 O.2     1  UNL1       -0.2670
     17 N          20.2300   74.0154   -8.4701 N.ar    1  UNL1       -0.2551
     18 N          22.4559   73.3910   -9.0219 N.ar    1  UNL1       -0.2743
     19 C          21.1118   73.0074   -8.9253 C.ar    1  UNL1        0.3323
     20 C          20.7172   75.2792   -8.1559 C.ar    1  UNL1        0.0869
     21 C          22.0015   75.6296   -8.2538 C.ar    1  UNL1        0.0795
     22 C          22.9879   74.6352   -8.7206 C.ar    1  UNL1        0.2626
     23 H          23.1081   72.6823   -9.3466 H       1  UNL1        0.1734
     24 O          20.7646   70.6230   -3.6688 O.3     1  UNL1       -0.2703
     25 P          22.0675   71.5447   -3.4126 P.3     1  UNL1        0.2208
     26 O          22.0676   72.5480   -4.6813 O.3     1  UNL1       -0.4371
     27 O          23.3429   70.7722   -3.2331 O.2     1  UNL1       -0.5170
     28 O          21.6693   72.4754   -2.1559 O.3     1  UNL1       -0.2858
     29 O          21.3400   70.9060   -0.4157 O.3     1  UNL1       -0.3226
     30 O          21.0427   74.5251    1.6074 O.3     1  UNL1       -0.3794
     31 O          19.8293   74.1947   -1.0240 O.3     1  UNL1       -0.3775
     32 O          21.1670   71.8512    2.2890 O.3     1  UNL1       -0.3792
     33 C          21.4941   73.5837    0.6378 C.3     1  UNL1        0.1718
     34 C          20.3265   73.1168   -0.2379 C.3     1  UNL1        0.1968
     35 C          22.1170   72.3870    1.3619 C.3     1  UNL1        0.1723
     36 C          20.7661   71.9797   -1.1686 C.3     1  UNL1        0.2706
     37 C          22.4779   71.3042    0.3473 C.3     1  UNL1        0.1830
     38 H          21.8123   74.7905    2.1392 H       1  UNL1        0.2105
     39 H          19.1003   73.8501   -1.5668 H       1  UNL1        0.2106
     40 H          20.4826   71.3747    1.7892 H       1  UNL1        0.2106
     41 O          22.7523   68.9766    0.2441 O.co2   1  UNL1       -0.5466
     42 O          23.5008   70.0279    2.1233 O.co2   1  UNL1       -0.5466
     43 C          22.9705   70.0639    1.0225 C.2     1  UNL1        0.0799
@<TRIPOS>UNITY_ATOM_ATTR
41 1
charge -1
@<TRIPOS>BOND
     1     1     4    1
     2     1    24    1
     3     1     2    1
     4     1     3    2
     5    25    28    1
     6    25    24    1
     7    25    26    1
     8    25    27    2
     9     6    11    1
    10     6    12    1
    11    29    36    1
    12    29    37    1
    13     7     9    1
    14     7    13    1
    15     8    10    1
    16     8    14    1
    17     4     5    1
    18    28    36    1
    19    30    33    1
    20    30    38    1
    21    31    34    1
    22    31    39    1
    23    32    35    1
    24    32    40    1
    25    41    43   ar
    26    15    19    2
    27    42    43   ar
    28    16    22    2
    29    17    12    1
    30    17    19   ar
    31    17    20   ar
    32    18    19   ar
    33    18    22   ar
    34    18    23    1
    35     9    10    1
    36     9    11    1
    37    10    12    1
    38    11     5    1
    39    33    34    1
    40    33    35    1
    41    34    36    1
    42    35    37    1
    43    37    43    1
    44    20    21   ar
    45    21    22   ar
@<TRIPOS>MOLECULE
UDP-glaA
 43 45 0 0 0
SMALL
GASTEIGER

@<TRIPOS>ATOM
      1 P          22.5471   72.7707   -4.1717 P.3     1  UNL1        0.2189
      2 O          22.6959   72.7580   -5.7826 O.3     1  UNL1       -0.4371
      3 O          23.5588   71.9417   -3.4360 O.2     1  UNL1       -0.5170
      4 O          20.9988   72.3768   -3.9202 O.3     1  UNL1       -0.3112
      5 C          20.5881   71.0449   -4.1787 C.3     1  UNL1        0.1811
      6 O          18.4239   71.6870   -3.3552 O.3     1  UNL1       -0.3308
      7 O          18.1626   68.8624   -2.3832 O.3     1  UNL1       -0.3794
      8 O          16.6839   68.8430   -4.6743 O.3     1  UNL1       -0.3779
      9 C          18.7873   69.3557   -3.5681 C.3     1  UNL1        0.1713
     10 C          17.7403   69.7759   -4.5779 C.3     1  UNL1        0.1895
     11 C          19.4545   70.6824   -3.2299 C.3     1  UNL1        0.1764
     12 C          17.2872   71.1160   -4.0239 C.3     1  UNL1        0.2383
     13 H          18.8695   68.6430   -1.7526 H       1  UNL1        0.2105
     14 H          17.0712   67.9874   -4.9277 H       1  UNL1        0.2106
     15 O          14.8783   72.5877   -3.9402 O.2     1  UNL1       -0.2464
     16 O          15.7126   74.5354   -8.0327 O.2     1  UNL1       -0.2670
     17 N          16.8504   72.0153   -5.0533 N.ar    1  UNL1       -0.2551
     18 N          15.2951   73.5562   -5.9784 N.ar    1  UNL1       -0.2743
     19 C          15.6235   72.7055   -4.9146 C.ar    1  UNL1        0.3323
     20 C          17.6345   72.2062   -6.1855 C.ar    1  UNL1        0.0869
     21 C          17.3078   73.0212   -7.1910 C.ar    1  UNL1        0.0795
     22 C          16.0422   73.7785   -7.1247 C.ar    1  UNL1        0.2626
     23 H          14.4171   74.0623   -5.9005 H       1  UNL1        0.1734
     24 O          22.5826   74.3481   -3.8169 O.3     1  UNL1       -0.2703
     25 P          22.0367   75.1577   -2.5289 P.3     1  UNL1        0.2208
     26 O          20.4320   75.1379   -2.7310 O.3     1  UNL1       -0.4371
     27 O          22.6246   76.5306   -2.3697 O.2     1  UNL1       -0.5170
     28 O          22.3035   74.1695   -1.2815 O.3     1  UNL1       -0.2858
     29 O          21.3412   72.1308   -0.5623 O.3     1  UNL1       -0.3226
     30 O          21.9622   74.1178    3.0357 O.3     1  UNL1       -0.3794
     31 O          20.9725   75.5569    0.7000 O.3     1  UNL1       -0.3775
     32 O          21.1977   71.5820    2.2514 O.3     1  UNL1       -0.3792
     33 C          22.1989   73.7079    1.6917 C.3     1  UNL1        0.1718
     34 C          21.0372   74.1375    0.7895 C.3     1  UNL1        0.1968
     35 C          22.3526   72.1848    1.6583 C.3     1  UNL1        0.1723
     36 C          21.1992   73.5540   -0.6197 C.3     1  UNL1        0.2706
     37 C          22.4650   71.7120    0.2106 C.3     1  UNL1        0.1830
     38 H          22.7196   73.8235    3.5699 H       1  UNL1        0.2105
     39 H          20.2306   75.7804    0.1131 H       1  UNL1        0.2106
     40 H          20.4537   71.6637    1.6310 H       1  UNL1        0.2106
     41 O          21.2365   69.7327   -0.0673 O.co2   1  UNL1       -0.5466
     42 O          23.4903   69.5260    0.2063 O.co2   1  UNL1       -0.5466
     43 C          22.4867   70.2191    0.1227 C.2     1  UNL1        0.0799
@<TRIPOS>UNITY_ATOM_ATTR
41 1
charge -1
@<TRIPOS>BOND
     1     1     4    1
     2     1    24    1
     3     1     2    1
     4     1     3    2
     5    25    28    1
     6    25    24    1
     7    25    26    1
     8    25    27    2
     9     6    11    1
    10     6    12    1
    11    29    36    1
    12    29    37    1
    13     7     9    1
    14     7    13    1
    15     8    10    1
    16     8    14    1
    17     4     5    1
    18    28    36    1
    19    30    33    1
    20    30    38    1
    21    31    34    1
    22    31    39    1
    23    32    35    1
    24    32    40    1
    25    41    43   ar
    26    15    19    2
    27    42    43   ar
    28    16    22    2
    29    17    12    1
    30    17    19   ar
    31    17    20   ar
    32    18    19   ar
    33    18    22   ar
    34    18    23    1
    35     9    10    1
    36     9    11    1
    37    10    12    1
    38    11     5    1
    39    33    34    1
    40    33    35    1
    41    34    36    1
    42    35    37    1
    43    37    43    1
    44    20    21   ar
    45    21    22   ar
@<TRIPOS>MOLECULE
UDP-glaA
 43 45 0 0 0
SMALL
GASTEIGER

@<TRIPOS>ATOM
      1 P          21.5430   73.3924   -5.8276 P.3     1  UNL1        0.2189
      2 O          21.3217   74.9116   -6.3381 O.3     1  UNL1       -0.4371
      3 O          22.5176   72.5882   -6.6371 O.2     1  UNL1       -0.5170
      4 O          20.0446   72.7915   -5.7315 O.3     1  UNL1       -0.3112
      5 C          19.8794   71.4472   -5.3134 C.3     1  UNL1        0.1811
      6 O          17.6549   72.3481   -5.1929 O.3     1  UNL1       -0.3308
      7 O          16.8367   69.6831   -4.0884 O.3     1  UNL1       -0.3794
      8 O          16.0438   69.5175   -6.6922 O.3     1  UNL1       -0.3779
      9 C          17.8095   69.9864   -5.0881 C.3     1  UNL1        0.1713
     10 C          17.1281   70.3691   -6.3849 C.3     1  UNL1        0.1895
     11 C          18.4983   71.2864   -4.6942 C.3     1  UNL1        0.1764
     12 C          16.6884   71.7954   -6.1016 C.3     1  UNL1        0.2383
     13 H          17.3176   69.4825   -3.2674 H       1  UNL1        0.2105
     14 H          16.3910   68.6107   -6.7496 H       1  UNL1        0.2106
     15 O          18.4764   71.5339   -8.2719 O.2     1  UNL1       -0.2464
     16 O          16.4374   74.9487  -10.6001 O.2     1  UNL1       -0.2670
     17 N          16.6474   72.6023   -7.2876 N.ar    1  UNL1       -0.2551
     18 N          17.4602   73.2349   -9.4296 N.ar    1  UNL1       -0.2743
     19 C          17.5920   72.3909   -8.3190 C.ar    1  UNL1        0.3323
     20 C          15.6787   73.5910   -7.4201 C.ar    1  UNL1        0.0869
     21 C          15.5658   74.3872   -8.4856 C.ar    1  UNL1        0.0795
     22 C          16.5138   74.2322   -9.6067 C.ar    1  UNL1        0.2626
     23 H          18.1290   73.1013  -10.1832 H       1  UNL1        0.1734
     24 O          21.9559   73.5880   -4.2763 O.3     1  UNL1       -0.2703
     25 P          23.1328   72.9115   -3.3990 P.3     1  UNL1        0.2208
     26 O          24.4493   73.7397   -3.8427 O.3     1  UNL1       -0.4371
     27 O          23.2498   71.4237   -3.5685 O.2     1  UNL1       -0.5170
     28 O          22.8407   73.3890   -1.8855 O.3     1  UNL1       -0.2858
     29 O          21.6174   71.7304   -0.7229 O.3     1  UNL1       -0.3226
     30 O          21.8058   74.7967    2.0774 O.3     1  UNL1       -0.3794
     31 O          21.3217   75.3882   -0.7372 O.3     1  UNL1       -0.3775
     32 O          20.9799   72.1610    2.0424 O.3     1  UNL1       -0.3792
     33 C          22.2227   73.9546    1.0062 C.3     1  UNL1        0.1718
     34 C          21.2590   74.0802   -0.1786 C.3     1  UNL1        0.1968
     35 C          22.2591   72.5059    1.5006 C.3     1  UNL1        0.1723
     36 C          21.5992   73.0543   -1.2668 C.3     1  UNL1        0.2706
     37 C          22.5654   71.5723    0.3315 C.3     1  UNL1        0.1830
     38 H          22.4416   74.6832    2.8043 H       1  UNL1        0.2105
     39 H          20.7040   75.4169   -1.4871 H       1  UNL1        0.2106
     40 H          20.3542   72.0450    1.3073 H       1  UNL1        0.2106
     41 O          23.5813   69.7774    1.4496 O.co2   1  UNL1       -0.5466
     42 O          21.5551   69.3844    0.4815 O.co2   1  UNL1       -0.5466
     43 C          22.4832   70.1363    0.7419 C.2     1  UNL1        0.0799
@<TRIPOS>UNITY_ATOM_ATTR
41 1
charge -1
@<TRIPOS>BOND
     1     1     4    1
     2     1    24    1
     3     1     2    1
     4     1     3    2
     5    25    28    1
     6    25    24    1
     7    25    26    1
     8    25    27    2
     9     6    11    1
    10     6    12    1
    11    29    36    1
    12    29    37    1
    13     7     9    1
    14     7    13    1
    15     8    10    1
    16     8    14    1
    17     4     5    1
    18    28    36    1
    19    30    33    1
    20    30    38    1
    21    31    34    1
    22    31    39    1
    23    32    35    1
    24    32    40    1
    25    41    43   ar
    26    15    19    2
    27    42    43   ar
    28    16    22    2
    29    17    12    1
    30    17    19   ar
    31    17    20   ar
    32    18    19   ar
    33    18    22   ar
    34    18    23    1
    35     9    10    1
    36     9    11    1
    37    10    12    1
    38    11     5    1
    39    33    34    1
    40    33    35    1
    41    34    36    1
    42    35    37    1
    43    37    43    1
    44    20    21   ar
    45    21    22   ar
@<TRIPOS>MOLECULE
UDP-glaA
 43 45 0 0 0
SMALL
GASTEIGER

@<TRIPOS>ATOM
      1 P          22.5539   72.0503   -3.4136 P.3     1  UNL1        0.2189
      2 O          23.7495   72.8848   -4.1149 O.3     1  UNL1       -0.4371
      3 O          22.8350   70.5901   -3.2115 O.2     1  UNL1       -0.5170
      4 O          21.2559   72.3982   -4.3136 O.3     1  UNL1       -0.3112
      5 C          20.4393   71.3315   -4.7656 C.3     1  UNL1        0.1811
      6 O          18.2414   71.9852   -4.0473 O.3     1  UNL1       -0.3308
      7 O          18.1608   69.3872   -2.5523 O.3     1  UNL1       -0.3794
      8 O          16.6799   68.8408   -4.7758 O.3     1  UNL1       -0.3779
      9 C          18.7500   69.6827   -3.8184 C.3     1  UNL1        0.1713
     10 C          17.6758   69.8379   -4.8742 C.3     1  UNL1        0.1895
     11 C          19.3334   71.0878   -3.7485 C.3     1  UNL1        0.1764
     12 C          17.1409   71.2287   -4.5784 C.3     1  UNL1        0.2383
     13 H          18.8820   69.3357   -1.9020 H       1  UNL1        0.2105
     14 H          17.1195   67.9780   -4.8676 H       1  UNL1        0.2106
     15 O          17.7352   70.4343   -7.2225 O.2     1  UNL1       -0.2464
     16 O          15.1851   73.8310   -9.0107 O.2     1  UNL1       -0.2670
     17 N          16.6455   71.8869   -5.7535 N.ar    1  UNL1       -0.2551
     18 N          16.4654   72.1266   -8.1112 N.ar    1  UNL1       -0.2743
     19 C          17.0045   71.4088   -7.0354 C.ar    1  UNL1        0.3323
     20 C          15.8133   72.9938   -5.6291 C.ar    1  UNL1        0.0869
     21 C          15.3070   73.6671   -6.6646 C.ar    1  UNL1        0.0795
     22 C          15.6339   73.2333   -8.0374 C.ar    1  UNL1        0.2626
     23 H          16.7106   71.8012   -9.0424 H       1  UNL1        0.1734
     24 O          22.2841   72.8792   -2.0515 O.3     1  UNL1       -0.2703
     25 P          20.9390   73.0711   -1.1760 P.3     1  UNL1        0.2208
     26 O          20.4475   71.5528   -0.9131 O.3     1  UNL1       -0.4371
     27 O          19.9074   73.9544   -1.8174 O.2     1  UNL1       -0.5170
     28 O          21.4574   73.5875    0.2623 O.3     1  UNL1       -0.2858
     29 O          23.5969   74.1573    1.0975 O.3     1  UNL1       -0.3226
     30 O          21.8423   72.3119    4.3831 O.3     1  UNL1       -0.3794
     31 O          21.4662   71.2308    1.7007 O.3     1  UNL1       -0.3775
     32 O          24.1562   73.7345    3.8808 O.3     1  UNL1       -0.3792
     33 C          21.9316   73.0913    3.1936 C.3     1  UNL1        0.1718
     34 C          22.4263   72.2303    2.0265 C.3     1  UNL1        0.1968
     35 C          22.8990   74.2533    3.4343 C.3     1  UNL1        0.1723
     36 C          22.6894   73.0947    0.7871 C.3     1  UNL1        0.2706
     37 C          23.1180   75.0173    2.1303 C.3     1  UNL1        0.1830
     38 H          21.5285   72.8965    5.0940 H       1  UNL1        0.2105
     39 H          21.8179   70.7188    0.9531 H       1  UNL1        0.2106
     40 H          24.6088   73.3270    3.1231 H       1  UNL1        0.2106
     41 O          24.2435   76.4779    3.5807 O.co2   1  UNL1       -0.5466
     42 O          24.8382   76.5368    1.3808 O.co2   1  UNL1       -0.5466
     43 C          24.1561   76.0825    2.2878 C.2     1  UNL1        0.0799
@<TRIPOS>UNITY_ATOM_ATTR
41 1
charge -1
@<TRIPOS>BOND
     1     1     4    1
     2     1    24    1
     3     1     2    1
     4     1     3    2
     5    25    28    1
     6    25    24    1
     7    25    26    1
     8    25    27    2
     9     6    11    1
    10     6    12    1
    11    29    36    1
    12    29    37    1
    13     7     9    1
    14     7    13    1
    15     8    10    1
    16     8    14    1
    17     4     5    1
    18    28    36    1
    19    30    33    1
    20    30    38    1
    21    31    34    1
    22    31    39    1
    23    32    35    1
    24    32    40    1
    25    41    43   ar
    26    15    19    2
    27    42    43   ar
    28    16    22    2
    29    17    12    1
    30    17    19   ar
    31    17    20   ar
    32    18    19   ar
    33    18    22   ar
    34    18    23    1
    35     9    10    1
    36     9    11    1
    37    10    12    1
    38    11     5    1
    39    33    34    1
    40    33    35    1
    41    34    36    1
    42    35    37    1
    43    37    43    1
    44    20    21   ar
    45    21    22   ar
@<TRIPOS>MOLECULE
UDP-glaA
 43 45 0 0 0
SMALL
GASTEIGER

@<TRIPOS>ATOM
      1 P          22.3646   70.8560   -2.7967 P.3     1  UNL1        0.2189
      2 O          21.6663   69.6964   -1.9107 O.3     1  UNL1       -0.4371
      3 O          23.7500   70.5373   -3.2776 O.2     1  UNL1       -0.5170
      4 O          22.2259   72.1823   -1.8817 O.3     1  UNL1       -0.3112
      5 C          21.7169   72.0472   -0.5657 C.3     1  UNL1        0.1811
      6 O          20.6159   73.4116    1.0776 O.3     1  UNL1       -0.3308
      7 O          19.7179   75.1215   -1.2161 O.3     1  UNL1       -0.3794
      8 O          21.8126   76.5409   -0.1995 O.3     1  UNL1       -0.3779
      9 C          20.9519   74.4268   -1.0364 C.3     1  UNL1        0.1713
     10 C          21.8125   75.1403   -0.0152 C.3     1  UNL1        0.1895
     11 C          20.6511   73.1090   -0.3346 C.3     1  UNL1        0.1764
     12 C          21.1616   74.7236    1.2927 C.3     1  UNL1        0.2383
     13 H          19.1855   74.6081   -1.8473 H       1  UNL1        0.2105
     14 H          22.1405   76.7178   -1.0981 H       1  UNL1        0.2106
     15 O          20.4394   74.5354    4.0164 O.2     1  UNL1       -0.2464
     16 O          24.8440   74.5176    5.3719 O.2     1  UNL1       -0.2670
     17 N          22.0988   74.6675    2.3780 N.ar    1  UNL1       -0.2551
     18 N          22.6332   74.5272    4.6896 N.ar    1  UNL1       -0.2743
     19 C          21.6324   74.5746    3.7102 C.ar    1  UNL1        0.3323
     20 C          23.4641   74.7048    2.1174 C.ar    1  UNL1        0.0869
     21 C          24.4059   74.6582    3.0623 C.ar    1  UNL1        0.0795
     22 C          24.0030   74.5617    4.4794 C.ar    1  UNL1        0.2626
     23 H          22.3211   74.4609    5.6547 H       1  UNL1        0.1734
     24 O          21.2854   71.1123   -3.9735 O.3     1  UNL1       -0.2703
     25 P          19.7320   70.6839   -4.0992 P.3     1  UNL1        0.2208
     26 O          19.0195   71.5186   -2.9110 O.3     1  UNL1       -0.4371
     27 O          19.4953   69.2017   -4.0438 O.2     1  UNL1       -0.5170
     28 O          19.2216   71.3902   -5.4574 O.3     1  UNL1       -0.2858
     29 O          16.8812   71.3772   -5.8064 O.3     1  UNL1       -0.3226
     30 O          18.3083   72.5930   -9.5164 O.3     1  UNL1       -0.3794
     31 O          19.6623   70.4823   -8.0273 O.3     1  UNL1       -0.3775
     32 O          15.8439   72.3822   -8.2868 O.3     1  UNL1       -0.3792
     33 C          18.2509   72.4595   -8.0990 C.3     1  UNL1        0.1718
     34 C          18.3728   70.9862   -7.6956 C.3     1  UNL1        0.1968
     35 C          16.9202   73.0306   -7.6013 C.3     1  UNL1        0.1723
     36 C          18.1404   70.8144   -6.1893 C.3     1  UNL1        0.2706
     37 C          16.7776   72.7688   -6.1035 C.3     1  UNL1        0.1830
     38 H          18.2251   73.5390   -9.7256 H       1  UNL1        0.2105
     39 H          19.6954   69.5526   -7.7455 H       1  UNL1        0.2106
     40 H          15.7523   71.4805   -7.9351 H       1  UNL1        0.2106
     41 O          15.1140   72.5217   -4.4678 O.co2   1  UNL1       -0.5466
     42 O          14.7221   74.0354   -6.1268 O.co2   1  UNL1       -0.5466
     43 C          15.4355   73.1945   -5.5990 C.2     1  UNL1        0.0799
@<TRIPOS>UNITY_ATOM_ATTR
41 1
charge -1
@<TRIPOS>BOND
     1     1     4    1
     2     1    24    1
     3     1     2    1
     4     1     3    2
     5    25    28    1
     6    25    24    1
     7    25    26    1
     8    25    27    2
     9     6    11    1
    10     6    12    1
    11    29    36    1
    12    29    37    1
    13     7     9    1
    14     7    13    1
    15     8    10    1
    16     8    14    1
    17     4     5    1
    18    28    36    1
    19    30    33    1
    20    30    38    1
    21    31    34    1
    22    31    39    1
    23    32    35    1
    24    32    40    1
    25    41    43   ar
    26    15    19    2
    27    42    43   ar
    28    16    22    2
    29    17    12    1
    30    17    19   ar
    31    17    20   ar
    32    18    19   ar
    33    18    22   ar
    34    18    23    1
    35     9    10    1
    36     9    11    1
    37    10    12    1
    38    11     5    1
    39    33    34    1
    40    33    35    1
    41    34    36    1
    42    35    37    1
    43    37    43    1
    44    20    21   ar
    45    21    22   ar
@<TRIPOS>MOLECULE
UDP-glaA
 43 45 0 0 0
SMALL
GASTEIGER

@<TRIPOS>ATOM
      1 P          21.6226   72.8602   -5.0394 P.3     1  UNL1        0.2189
      2 O          21.1696   74.3194   -4.5073 O.3     1  UNL1       -0.4371
      3 O          23.0893   72.7172   -5.3229 O.2     1  UNL1       -0.5170
      4 O          20.6344   72.5765   -6.2878 O.3     1  UNL1       -0.3112
      5 C          21.1851   72.5419   -7.5934 C.3     1  UNL1        0.1811
      6 O          19.5083   70.8214   -7.6393 O.3     1  UNL1       -0.3308
      7 O          18.9119   71.7371  -10.4316 O.3     1  UNL1       -0.3794
      8 O          16.9101   72.8935   -8.9853 O.3     1  UNL1       -0.3779
      9 C          19.2908   72.5064   -9.2903 C.3     1  UNL1        0.1713
     10 C          18.1295   72.6220   -8.3258 C.3     1  UNL1        0.1895
     11 C          20.2935   71.6899   -8.4855 C.3     1  UNL1        0.1764
     12 C          18.1395   71.2591   -7.6546 C.3     1  UNL1        0.2383
     13 H          19.6963   71.6572  -11.0006 H       1  UNL1        0.2105
     14 H          17.0224   73.7248   -9.4776 H       1  UNL1        0.2106
     15 O          17.3609   73.6259   -6.3252 O.2     1  UNL1       -0.2464
     16 O          16.2770   71.3272   -2.4807 O.2     1  UNL1       -0.2670
     17 N          17.6497   71.3082   -6.3066 N.ar    1  UNL1       -0.2551
     18 N          16.8222   72.4798   -4.4115 N.ar    1  UNL1       -0.2743
     19 C          17.2863   72.5485   -5.7317 C.ar    1  UNL1        0.3323
     20 C          17.5334   70.1358   -5.5682 C.ar    1  UNL1        0.0869
     21 C          17.0887   70.0868   -4.3106 C.ar    1  UNL1        0.0795
     22 C          16.6894   71.3380   -3.6365 C.ar    1  UNL1        0.2626
     23 H          16.5557   73.3595   -3.9776 H       1  UNL1        0.1734
     24 O          21.0576   71.8661   -3.8958 O.3     1  UNL1       -0.2703
     25 P          21.8302   70.9423   -2.8178 P.3     1  UNL1        0.2208
     26 O          23.3850   71.1127   -3.2297 O.3     1  UNL1       -0.4371
     27 O          21.3533   69.5189   -2.7722 O.2     1  UNL1       -0.5170
     28 O          21.6883   71.7380   -1.4211 O.3     1  UNL1       -0.2858
     29 O          23.3337   73.0255   -0.3101 O.3     1  UNL1       -0.3226
     30 O          21.0119   71.6599    2.8560 O.3     1  UNL1       -0.3794
     31 O          21.6717   69.8922    0.6321 O.3     1  UNL1       -0.3775
     32 O          23.0796   73.4596    2.5158 O.3     1  UNL1       -0.3792
     33 C          21.3221   72.1181    1.5429 C.3     1  UNL1        0.1718
     34 C          22.2940   71.1529    0.8558 C.3     1  UNL1        0.1968
     35 C          21.9487   73.5118    1.6399 C.3     1  UNL1        0.1723
     36 C          22.7671   71.7230   -0.4872 C.3     1  UNL1        0.2706
     37 C          22.4180   73.9607    0.2577 C.3     1  UNL1        0.1830
     38 H          20.3978   72.3008    3.2529 H       1  UNL1        0.2105
     39 H          22.3198   69.3197    0.1882 H       1  UNL1        0.2106
     40 H          23.8069   73.0083    2.0547 H       1  UNL1        0.2106
     41 O          22.6257   76.1550   -0.5460 O.co2   1  UNL1       -0.5466
     42 O          24.0986   75.4954    1.0642 O.co2   1  UNL1       -0.5466
     43 C          23.1532   75.2615    0.3253 C.2     1  UNL1        0.0799
@<TRIPOS>UNITY_ATOM_ATTR
41 1
charge -1
@<TRIPOS>BOND
     1     1     4    1
     2     1    24    1
     3     1     2    1
     4     1     3    2
     5    25    28    1
     6    25    24    1
     7    25    26    1
     8    25    27    2
     9     6    11    1
    10     6    12    1
    11    29    36    1
    12    29    37    1
    13     7     9    1
    14     7    13    1
    15     8    10    1
    16     8    14    1
    17     4     5    1
    18    28    36    1
    19    30    33    1
    20    30    38    1
    21    31    34    1
    22    31    39    1
    23    32    35    1
    24    32    40    1
    25    41    43   ar
    26    15    19    2
    27    42    43   ar
    28    16    22    2
    29    17    12    1
    30    17    19   ar
    31    17    20   ar
    32    18    19   ar
    33    18    22   ar
    34    18    23    1
    35     9    10    1
    36     9    11    1
    37    10    12    1
    38    11     5    1
    39    33    34    1
    40    33    35    1
    41    34    36    1
    42    35    37    1
    43    37    43    1
    44    20    21   ar
    45    21    22   ar
@<TRIPOS>MOLECULE
UDP-glaA
 43 45 0 0 0
SMALL
GASTEIGER

@<TRIPOS>ATOM
      1 P          22.9374   71.8698   -3.2024 P.3     1  UNL1        0.2189
      2 O          23.7721   72.9425   -4.0799 O.3     1  UNL1       -0.4371
      3 O          23.4846   70.4725   -3.2231 O.2     1  UNL1       -0.5170
      4 O          21.4165   72.0368   -3.7263 O.3     1  UNL1       -0.3112
      5 C          20.7189   70.8819   -4.1605 C.3     1  UNL1        0.1811
      6 O          18.5413   71.6819   -3.5340 O.3     1  UNL1       -0.3308
      7 O          18.1037   68.9771   -2.3157 O.3     1  UNL1       -0.3794
      8 O          16.7575   68.7903   -4.6797 O.3     1  UNL1       -0.3779
      9 C          18.8152   69.3289   -3.5022 C.3     1  UNL1        0.1713
     10 C          17.8460   69.6878   -4.6087 C.3     1  UNL1        0.1895
     11 C          19.5188   70.6562   -3.2518 C.3     1  UNL1        0.1764
     12 C          17.4206   71.0915   -4.2129 C.3     1  UNL1        0.2383
     13 H          18.7638   68.7937   -1.6256 H       1  UNL1        0.2105
     14 H          17.1212   67.9002   -4.8268 H       1  UNL1        0.2106
     15 O          15.0571   72.6216   -4.4322 O.2     1  UNL1       -0.2464
     16 O          16.2254   74.1629   -8.6153 O.2     1  UNL1       -0.2670
     17 N          17.0819   71.9022   -5.3476 N.ar    1  UNL1       -0.2551
     18 N          15.6402   73.3877   -6.5153 N.ar    1  UNL1       -0.2743
     19 C          15.8699   72.6313   -5.3585 C.ar    1  UNL1        0.3323
     20 C          17.9465   71.9690   -6.4345 C.ar    1  UNL1        0.0869
     21 C          17.7135   72.6953   -7.5300 C.ar    1  UNL1        0.0795
     22 C          16.4697   73.4854   -7.6217 C.ar    1  UNL1        0.2626
     23 H          14.7746   73.9196   -6.5454 H       1  UNL1        0.1734
     24 O          22.8943   72.5546   -1.7381 O.3     1  UNL1       -0.2703
     25 P          21.8988   72.3197   -0.4866 P.3     1  UNL1        0.2208
     26 O          21.9762   70.7222   -0.2457 O.3     1  UNL1       -0.4371
     27 O          20.5088   72.8483   -0.6975 O.2     1  UNL1       -0.5170
     28 O          22.6714   72.9611    0.7766 O.3     1  UNL1       -0.2858
     29 O          21.4251   74.1608    2.3912 O.3     1  UNL1       -0.3226
     30 O          25.3162   75.3619    3.2256 O.3     1  UNL1       -0.3794
     31 O          24.4112   75.0825    0.4672 O.3     1  UNL1       -0.3775
     32 O          22.8315   75.6589    4.3953 O.3     1  UNL1       -0.3792
     33 C          24.2537   74.5025    2.8221 C.3     1  UNL1        0.1718
     34 C          23.5400   75.0758    1.5932 C.3     1  UNL1        0.1968
     35 C          23.2652   74.3587    3.9825 C.3     1  UNL1        0.1723
     36 C          22.2920   74.2506    1.2557 C.3     1  UNL1        0.2706
     37 C          22.0486   73.5576    3.5239 C.3     1  UNL1        0.1830
     38 H          25.7369   74.9619    4.0058 H       1  UNL1        0.2105
     39 H          23.9143   75.4436   -0.2861 H       1  UNL1        0.2106
     40 H          22.2170   76.0062    3.7269 H       1  UNL1        0.2106
     41 O          21.5588   73.3144    5.8053 O.co2   1  UNL1       -0.5466
     42 O          19.7959   73.6139    4.3912 O.co2   1  UNL1       -0.5466
     43 C          20.9975   73.5024    4.5866 C.2     1  UNL1        0.0799
@<TRIPOS>UNITY_ATOM_ATTR
41 1
charge -1
@<TRIPOS>BOND
     1     1     4    1
     2     1    24    1
     3     1     2    1
     4     1     3    2
     5    25    28    1
     6    25    24    1
     7    25    26    1
     8    25    27    2
     9     6    11    1
    10     6    12    1
    11    29    36    1
    12    29    37    1
    13     7     9    1
    14     7    13    1
    15     8    10    1
    16     8    14    1
    17     4     5    1
    18    28    36    1
    19    30    33    1
    20    30    38    1
    21    31    34    1
    22    31    39    1
    23    32    35    1
    24    32    40    1
    25    41    43   ar
    26    15    19    2
    27    42    43   ar
    28    16    22    2
    29    17    12    1
    30    17    19   ar
    31    17    20   ar
    32    18    19   ar
    33    18    22   ar
    34    18    23    1
    35     9    10    1
    36     9    11    1
    37    10    12    1
    38    11     5    1
    39    33    34    1
    40    33    35    1
    41    34    36    1
    42    35    37    1
    43    37    43    1
    44    20    21   ar
    45    21    22   ar
@<TRIPOS>MOLECULE
UDP-glaA
 43 45 0 0 0
SMALL
GASTEIGER

@<TRIPOS>ATOM
      1 P          19.4797   73.4590   -4.5506 P.3     1  UNL1        0.2189
      2 O          20.7459   74.4648   -4.6005 O.3     1  UNL1       -0.4371
      3 O          18.1447   74.1111   -4.7616 O.2     1  UNL1       -0.5170
      4 O          19.6634   72.6703   -3.1507 O.3     1  UNL1       -0.3112
      5 C          20.3681   73.3099   -2.1002 C.3     1  UNL1        0.1811
      6 O          22.2570   73.0568   -0.6365 O.3     1  UNL1       -0.3308
      7 O          22.7940   70.4841   -2.0802 O.3     1  UNL1       -0.3794
      8 O          21.5901   69.6385    0.2158 O.3     1  UNL1       -0.3779
      9 C          21.5447   71.0842   -1.7383 C.3     1  UNL1        0.1713
     10 C          21.2777   70.9330   -0.2556 C.3     1  UNL1        0.1895
     11 C          21.6932   72.5930   -1.8832 C.3     1  UNL1        0.1764
     12 C          22.1774   72.0036    0.3380 C.3     1  UNL1        0.2383
     13 H          22.9403   70.6397   -3.0288 H       1  UNL1        0.2105
     14 H          21.0515   69.0052   -0.2892 H       1  UNL1        0.2106
     15 O          22.7615   70.9773    2.9034 O.2     1  UNL1       -0.2464
     16 O          20.1214   74.1391    4.9700 O.2     1  UNL1       -0.2670
     17 N          21.6570   72.5393    1.5634 N.ar    1  UNL1       -0.2551
     18 N          21.4460   72.5521    3.9307 N.ar    1  UNL1       -0.2743
     19 C          22.0115   71.9496    2.7992 C.ar    1  UNL1        0.3323
     20 C          20.8047   73.6375    1.5331 C.ar    1  UNL1        0.0869
     21 C          20.2741   74.2008    2.6207 C.ar    1  UNL1        0.0795
     22 C          20.5932   73.6449    3.9507 C.ar    1  UNL1        0.2626
     23 H          21.6865   72.1444    4.8302 H       1  UNL1        0.1734
     24 O          19.8635   72.3384   -5.6517 O.3     1  UNL1       -0.2703
     25 P          20.6423   72.4615   -7.0627 P.3     1  UNL1        0.2208
     26 O          22.1919   72.6003   -6.6204 O.3     1  UNL1       -0.4371
     27 O          20.1474   73.5720   -7.9446 O.2     1  UNL1       -0.5170
     28 O          20.5349   70.9911   -7.7186 O.3     1  UNL1       -0.2858
     29 O          18.2897   70.2442   -7.7438 O.3     1  UNL1       -0.3226
     30 O          17.9647   74.0370   -9.4136 O.3     1  UNL1       -0.3794
     31 O          20.1853   72.2877  -10.1309 O.3     1  UNL1       -0.3775
     32 O          16.2276   72.0777   -8.5341 O.3     1  UNL1       -0.3792
     33 C          18.4604   72.9985   -8.5733 C.3     1  UNL1        0.1718
     34 C          19.0316   71.8545   -9.4180 C.3     1  UNL1        0.1968
     35 C          17.3161   72.4818   -7.6970 C.3     1  UNL1        0.1723
     36 C          19.4097   70.6612   -8.5317 C.3     1  UNL1        0.2706
     37 C          17.7913   71.2743   -6.8918 C.3     1  UNL1        0.1830
     38 H          17.6116   74.7367   -8.8379 H       1  UNL1        0.2105
     39 H          20.5161   71.5299  -10.6420 H       1  UNL1        0.2106
     40 H          16.4651   71.2400   -8.9667 H       1  UNL1        0.2106
     41 O          16.0189   71.5943   -5.3884 O.co2   1  UNL1       -0.5466
     42 O          16.3732   69.4710   -6.1389 O.co2   1  UNL1       -0.5466
     43 C          16.6700   70.6567   -6.1183 C.2     1  UNL1        0.0799
@<TRIPOS>UNITY_ATOM_ATTR
41 1
charge -1
@<TRIPOS>BOND
     1     1     4    1
     2     1    24    1
     3     1     2    1
     4     1     3    2
     5    25    28    1
     6    25    24    1
     7    25    26    1
     8    25    27    2
     9     6    11    1
    10     6    12    1
    11    29    36    1
    12    29    37    1
    13     7     9    1
    14     7    13    1
    15     8    10    1
    16     8    14    1
    17     4     5    1
    18    28    36    1
    19    30    33    1
    20    30    38    1
    21    31    34    1
    22    31    39    1
    23    32    35    1
    24    32    40    1
    25    41    43   ar
    26    15    19    2
    27    42    43   ar
    28    16    22    2
    29    17    12    1
    30    17    19   ar
    31    17    20   ar
    32    18    19   ar
    33    18    22   ar
    34    18    23    1
    35     9    10    1
    36     9    11    1
    37    10    12    1
    38    11     5    1
    39    33    34    1
    40    33    35    1
    41    34    36    1
    42    35    37    1
    43    37    43    1
    44    20    21   ar
    45    21    22   ar
@<TRIPOS>MOLECULE
UDP-glaA
 43 45 0 0 0
SMALL
GASTEIGER

@<TRIPOS>ATOM
      1 P          20.1029   69.8094   -2.7362 P.3     1  UNL1        0.2189
      2 O          18.9689   68.6566   -2.7839 O.3     1  UNL1       -0.4371
      3 O          21.4661   69.3755   -3.1896 O.2     1  UNL1       -0.5170
      4 O          20.0136   70.3818   -1.2263 O.3     1  UNL1       -0.3112
      5 C          21.1576   71.0072   -0.6700 C.3     1  UNL1        0.1811
      6 O          20.7502   73.1979    0.2294 O.3     1  UNL1       -0.3308
      7 O          22.2118   74.2497   -2.1683 O.3     1  UNL1       -0.3794
      8 O          24.1030   74.3908   -0.2088 O.3     1  UNL1       -0.3779
      9 C          22.4559   73.0655   -1.4095 C.3     1  UNL1        0.1713
     10 C          23.0894   73.4153   -0.0795 C.3     1  UNL1        0.1895
     11 C          21.1097   72.4963   -0.9813 C.3     1  UNL1        0.1764
     12 C          21.8962   73.9150    0.7170 C.3     1  UNL1        0.2383
     13 H          21.7712   73.9803   -2.9922 H       1  UNL1        0.2105
     14 H          24.7736   74.0370   -0.8181 H       1  UNL1        0.2106
     15 O          21.3234   71.4519    1.9743 O.2     1  UNL1       -0.2464
     16 O          22.4659   73.0962    6.1251 O.2     1  UNL1       -0.2670
     17 N          22.0356   73.6713    2.1244 N.ar    1  UNL1       -0.2551
     18 N          21.8922   72.2725    4.0405 N.ar    1  UNL1       -0.2743
     19 C          21.7206   72.3988    2.6557 C.ar    1  UNL1        0.3323
     20 C          22.4800   74.6874    2.9631 C.ar    1  UNL1        0.0869
     21 C          22.6389   74.5511    4.2814 C.ar    1  UNL1        0.0795
     22 C          22.3310   73.2540    4.9156 C.ar    1  UNL1        0.2626
     23 H          21.6713   71.3664    4.4445 H       1  UNL1        0.1734
     24 O          19.4478   70.9986   -3.6147 O.3     1  UNL1       -0.2703
     25 P          17.9944   71.7010   -3.5318 P.3     1  UNL1        0.2208
     26 O          17.9372   72.2574   -2.0142 O.3     1  UNL1       -0.4371
     27 O          16.8525   70.7997   -3.9053 O.2     1  UNL1       -0.5170
     28 O          18.1266   73.0235   -4.4470 O.3     1  UNL1       -0.2858
     29 O          18.3563   73.1199   -6.8001 O.3     1  UNL1       -0.3226
     30 O          16.3524   69.5172   -6.2674 O.3     1  UNL1       -0.3794
     31 O          15.6343   71.8599   -4.6858 O.3     1  UNL1       -0.3775
     32 O          17.5580   70.8501   -8.3650 O.3     1  UNL1       -0.3792
     33 C          17.2482   70.5883   -5.9837 C.3     1  UNL1        0.1718
     34 C          16.4772   71.9039   -5.8323 C.3     1  UNL1        0.1968
     35 C          18.2606   70.7030   -7.1267 C.3     1  UNL1        0.1723
     36 C          17.4434   73.0875   -5.6981 C.3     1  UNL1        0.2706
     37 C          19.1400   71.9329   -6.9117 C.3     1  UNL1        0.1830
     38 H          16.8828   68.7071   -6.3574 H       1  UNL1        0.2105
     39 H          15.1755   72.7148   -4.6260 H       1  UNL1        0.2106
     40 H          17.1924   71.7499   -8.4078 H       1  UNL1        0.2106
     41 O          20.5212   70.9787   -8.5505 O.co2   1  UNL1       -0.5466
     42 O          20.3536   73.2521   -8.5293 O.co2   1  UNL1       -0.5466
     43 C          20.0585   72.1581   -8.0704 C.2     1  UNL1        0.0799
@<TRIPOS>UNITY_ATOM_ATTR
41 1
charge -1
@<TRIPOS>BOND
     1     1     4    1
     2     1    24    1
     3     1     2    1
     4     1     3    2
     5    25    28    1
     6    25    24    1
     7    25    26    1
     8    25    27    2
     9     6    11    1
    10     6    12    1
    11    29    36    1
    12    29    37    1
    13     7     9    1
    14     7    13    1
    15     8    10    1
    16     8    14    1
    17     4     5    1
    18    28    36    1
    19    30    33    1
    20    30    38    1
    21    31    34    1
    22    31    39    1
    23    32    35    1
    24    32    40    1
    25    41    43   ar
    26    15    19    2
    27    42    43   ar
    28    16    22    2
    29    17    12    1
    30    17    19   ar
    31    17    20   ar
    32    18    19   ar
    33    18    22   ar
    34    18    23    1
    35     9    10    1
    36     9    11    1
    37    10    12    1
    38    11     5    1
    39    33    34    1
    40    33    35    1
    41    34    36    1
    42    35    37    1
    43    37    43    1
    44    20    21   ar
    45    21    22   ar
@<TRIPOS>MOLECULE
UDP-glaA
 43 45 0 0 0
SMALL
GASTEIGER

@<TRIPOS>ATOM
      1 P          19.3734   70.5479   -3.9767 P.3     1  UNL1        0.2189
      2 O          18.7677   69.0860   -4.3133 O.3     1  UNL1       -0.4371
      3 O          18.6057   71.3306   -2.9520 O.2     1  UNL1       -0.5170
      4 O          19.5276   71.2489   -5.4260 O.3     1  UNL1       -0.3112
      5 C          18.6720   70.8300   -6.4756 C.3     1  UNL1        0.1811
      6 O          18.6179   73.1987   -6.8763 O.3     1  UNL1       -0.3308
      7 O          16.1227   72.6852   -8.4580 O.3     1  UNL1       -0.3794
      8 O          18.0165   72.9487  -10.4022 O.3     1  UNL1       -0.3779
      9 C          17.2975   71.8831   -8.3386 C.3     1  UNL1        0.1713
     10 C          18.4336   72.4945   -9.1313 C.3     1  UNL1        0.1895
     11 C          17.8056   72.0044   -6.9080 C.3     1  UNL1        0.1764
     12 C          18.8781   73.6282   -8.2229 C.3     1  UNL1        0.2383
     13 H          15.4356   72.2770   -7.9041 H       1  UNL1        0.2105
     14 H          17.6464   72.1858  -10.8788 H       1  UNL1        0.2106
     15 O          20.8898   71.6812   -8.5940 O.2     1  UNL1       -0.2464
     16 O          24.2110   74.8735   -8.7245 O.2     1  UNL1       -0.2670
     17 N          20.2762   73.9224   -8.3574 N.ar    1  UNL1       -0.2551
     18 N          22.5424   73.2721   -8.6582 N.ar    1  UNL1       -0.2743
     19 C          21.2051   72.8712   -8.5392 C.ar    1  UNL1        0.3323
     20 C          20.7149   75.2409   -8.3085 C.ar    1  UNL1        0.0869
     21 C          21.9934   75.6069   -8.4240 C.ar    1  UNL1        0.0795
     22 C          23.0269   74.5702   -8.6155 C.ar    1  UNL1        0.2626
     23 H          23.2279   72.5331   -8.7891 H       1  UNL1        0.1734
     24 O          20.9032   70.2207   -3.5670 O.3     1  UNL1       -0.2703
     25 P          22.0747   71.1754   -2.9939 P.3     1  UNL1        0.2208
     26 O          21.7294   72.6165   -3.6422 O.3     1  UNL1       -0.4371
     27 O          23.4649   70.6841   -3.2799 O.2     1  UNL1       -0.5170
     28 O          21.7360   71.3416   -1.4250 O.3     1  UNL1       -0.2858
     29 O          23.3078   72.8191   -0.4525 O.3     1  UNL1       -0.3226
     30 O          20.9961   71.7264    2.8249 O.3     1  UNL1       -0.3794
     31 O          21.7649   69.7452    0.8274 O.3     1  UNL1       -0.3775
     32 O          22.9910   73.5639    2.3013 O.3     1  UNL1       -0.3792
     33 C          21.3073   72.0437    1.4711 C.3     1  UNL1        0.1718
     34 C          22.3299   71.0494    0.9106 C.3     1  UNL1        0.1968
     35 C          21.8729   73.4654    1.4131 C.3     1  UNL1        0.1723
     36 C          22.7996   71.4814   -0.4840 C.3     1  UNL1        0.2706
     37 C          22.3446   73.7725   -0.0066 C.3     1  UNL1        0.1830
     38 H          20.3492   72.3812    3.1384 H       1  UNL1        0.2105
     39 H          22.4436   69.1544    0.4597 H       1  UNL1        0.2106
     40 H          23.7439   73.0948    1.9034 H       1  UNL1        0.2106
     41 O          24.3390   74.9872    0.2187 O.co2   1  UNL1       -0.5466
     42 O          22.4737   76.1550   -0.3765 O.co2   1  UNL1       -0.5466
     43 C          23.0230   75.1033   -0.0819 C.2     1  UNL1        0.0799
@<TRIPOS>UNITY_ATOM_ATTR
41 1
charge -1
@<TRIPOS>BOND
     1     1     4    1
     2     1    24    1
     3     1     2    1
     4     1     3    2
     5    25    28    1
     6    25    24    1
     7    25    26    1
     8    25    27    2
     9     6    11    1
    10     6    12    1
    11    29    36    1
    12    29    37    1
    13     7     9    1
    14     7    13    1
    15     8    10    1
    16     8    14    1
    17     4     5    1
    18    28    36    1
    19    30    33    1
    20    30    38    1
    21    31    34    1
    22    31    39    1
    23    32    35    1
    24    32    40    1
    25    41    43   ar
    26    15    19    2
    27    42    43   ar
    28    16    22    2
    29    17    12    1
    30    17    19   ar
    31    17    20   ar
    32    18    19   ar
    33    18    22   ar
    34    18    23    1
    35     9    10    1
    36     9    11    1
    37    10    12    1
    38    11     5    1
    39    33    34    1
    40    33    35    1
    41    34    36    1
    42    35    37    1
    43    37    43    1
    44    20    21   ar
    45    21    22   ar
@<TRIPOS>MOLECULE
UDP-glaA
 43 45 0 0 0
SMALL
GASTEIGER

@<TRIPOS>ATOM
      1 P          22.5320   73.0479   -4.6197 P.3     1  UNL1        0.2189
      2 O          21.7161   74.4247   -4.3825 O.3     1  UNL1       -0.4371
      3 O          23.9178   73.0262   -4.0441 O.2     1  UNL1       -0.5170
      4 O          22.4298   72.8043   -6.2153 O.3     1  UNL1       -0.3112
      5 C          21.1907   73.0469   -6.8595 C.3     1  UNL1        0.1811
      6 O          19.1284   71.8144   -6.8142 O.3     1  UNL1       -0.3308
      7 O          20.4207   69.9432   -8.7686 O.3     1  UNL1       -0.3794
      8 O          18.8372   71.4785  -10.3721 O.3     1  UNL1       -0.3779
      9 C          20.5519   71.3599   -8.6526 C.3     1  UNL1        0.1713
     10 C          19.3038   72.0466   -9.1658 C.3     1  UNL1        0.1895
     11 C          20.5246   71.7144   -7.1716 C.3     1  UNL1        0.1764
     12 C          18.3357   71.8452   -8.0126 C.3     1  UNL1        0.2383
     13 H          21.2248   69.5460   -8.3928 H       1  UNL1        0.2105
     14 H          19.5538   71.5506  -11.0260 H       1  UNL1        0.2106
     15 O          15.9246   71.6820   -6.5512 O.2     1  UNL1       -0.2464
     16 O          14.7274   75.9830   -7.6940 O.2     1  UNL1       -0.2670
     17 N          17.3759   72.9072   -7.9106 N.ar    1  UNL1       -0.2551
     18 N          15.3298   73.8237   -7.1217 N.ar    1  UNL1       -0.2743
     19 C          16.1962   72.7229   -7.1523 C.ar    1  UNL1        0.3323
     20 C          17.6079   74.1156   -8.5582 C.ar    1  UNL1        0.0869
     21 C          16.7723   75.1558   -8.5189 C.ar    1  UNL1        0.0795
     22 C          15.5171   75.0453   -7.7496 C.ar    1  UNL1        0.2626
     23 H          14.4749   73.7137   -6.5829 H       1  UNL1        0.1734
     24 O          21.5345   71.9270   -4.0166 O.3     1  UNL1       -0.2703
     25 P          21.8079   70.7019   -2.9983 P.3     1  UNL1        0.2208
     26 O          23.4037   70.4678   -3.1194 O.3     1  UNL1       -0.4371
     27 O          20.9795   69.4789   -3.2696 O.2     1  UNL1       -0.5170
     28 O          21.5986   71.3366   -1.5295 O.3     1  UNL1       -0.2858
     29 O          23.2533   72.7794   -0.6465 O.3     1  UNL1       -0.3226
     30 O          21.0906   71.7518    2.7514 O.3     1  UNL1       -0.3794
     31 O          21.7074   69.7468    0.7252 O.3     1  UNL1       -0.3775
     32 O          23.0981   73.5398    2.1168 O.3     1  UNL1       -0.3792
     33 C          21.3382   72.0574    1.3819 C.3     1  UNL1        0.1718
     34 C          22.3064   71.0375    0.7733 C.3     1  UNL1        0.1968
     35 C          21.9332   73.4651    1.2884 C.3     1  UNL1        0.1723
     36 C          22.7128   71.4539   -0.6458 C.3     1  UNL1        0.2706
     37 C          22.3373   73.7567   -0.1551 C.3     1  UNL1        0.1830
     38 H          20.4764   72.4227    3.0954 H       1  UNL1        0.2105
     39 H          22.3519   69.1390    0.3252 H       1  UNL1        0.2106
     40 H          23.8179   73.0518    1.6823 H       1  UNL1        0.2106
     41 O          24.2013   74.9328   -0.9587 O.co2   1  UNL1       -0.5466
     42 O          22.6332   76.1287    0.1851 O.co2   1  UNL1       -0.5466
     43 C          23.0419   75.0708   -0.2714 C.2     1  UNL1        0.0799
@<TRIPOS>UNITY_ATOM_ATTR
41 1
charge -1
@<TRIPOS>BOND
     1     1     4    1
     2     1    24    1
     3     1     2    1
     4     1     3    2
     5    25    28    1
     6    25    24    1
     7    25    26    1
     8    25    27    2
     9     6    11    1
    10     6    12    1
    11    29    36    1
    12    29    37    1
    13     7     9    1
    14     7    13    1
    15     8    10    1
    16     8    14    1
    17     4     5    1
    18    28    36    1
    19    30    33    1
    20    30    38    1
    21    31    34    1
    22    31    39    1
    23    32    35    1
    24    32    40    1
    25    41    43   ar
    26    15    19    2
    27    42    43   ar
    28    16    22    2
    29    17    12    1
    30    17    19   ar
    31    17    20   ar
    32    18    19   ar
    33    18    22   ar
    34    18    23    1
    35     9    10    1
    36     9    11    1
    37    10    12    1
    38    11     5    1
    39    33    34    1
    40    33    35    1
    41    34    36    1
    42    35    37    1
    43    37    43    1
    44    20    21   ar
    45    21    22   ar
