@<TRIPOS>MOLECULE
UD1
 46 48 0 0 0
SMALL
GASTEIGER

@<TRIPOS>ATOM
      1 P          21.6010   70.7234   -2.4374 P.3     1  UNL1        0.2189
      2 O          23.0686   70.7026   -2.6234 O.2     1  UNL1       -0.5170
      3 O          21.0252   69.2235   -2.5437 O.3     1  UNL1       -0.4371
      4 O          20.9287   71.6375   -3.5799 O.3     1  UNL1       -0.3112
      5 C          19.8896   72.3889   -2.9506 C.3     1  UNL1        0.1811
      6 C          17.8906   71.3269   -5.7441 C.3     1  UNL1        0.2383
      7 C          17.9472   70.0889   -4.8143 C.3     1  UNL1        0.1895
      8 O          16.7569   69.3084   -4.9294 O.3     1  UNL1       -0.3779
      9 C          18.0482   70.7403   -3.4105 C.3     1  UNL1        0.1713
     10 C          18.5725   72.1613   -3.6940 C.3     1  UNL1        0.1764
     11 O          18.7871   72.2651   -5.1119 O.3     1  UNL1       -0.3308
     12 O          16.7626   70.7893   -2.7880 O.3     1  UNL1       -0.3794
     13 H          16.8556   68.5568   -4.3288 H       1  UNL1        0.2106
     14 H          16.4636   69.8752   -2.6924 H       1  UNL1        0.2105
     15 N          18.3607   70.9891   -7.0880 N.ar    1  UNL1       -0.2551
     16 C          17.4731   70.6474   -8.0381 C.ar    1  UNL1        0.3323
     17 N          17.8767   70.3357   -9.2840 N.ar    1  UNL1       -0.2743
     18 C          19.1880   70.3526   -9.5975 C.ar    1  UNL1        0.2626
     19 C          20.1337   70.7047   -8.6053 C.ar    1  UNL1        0.0795
     20 C          19.7009   71.0181   -7.3652 C.ar    1  UNL1        0.0869
     21 O          16.2870   70.6276   -7.7707 O.2     1  UNL1       -0.2464
     22 O          19.5545   70.0663  -10.7223 O.2     1  UNL1       -0.2670
     23 H          17.2223   70.0962   -9.9581 H       1  UNL1        0.1734
     24 O          21.2521   71.3319   -0.9893 O.3     1  UNL1       -0.2703
     25 P          22.2790   70.6650    0.0548 P.3     1  UNL1        0.2208
     26 O          23.5819   70.4413   -0.6094 O.2     1  UNL1       -0.5170
     27 O          21.6884   69.2566    0.5644 O.3     1  UNL1       -0.4371
     28 O          22.4803   71.6478    1.3135 O.3     1  UNL1       -0.2865
     29 C          21.6672   72.7981    1.0754 C.3     1  UNL1        0.2611
     30 C          22.5630   73.9827    0.7090 C.3     1  UNL1        0.1582
     31 C          23.5450   74.2424    1.8570 C.3     1  UNL1        0.1625
     32 C          22.7486   74.4045    3.1560 C.3     1  UNL1        0.1686
     33 C          21.8408   73.1864    3.3393 C.3     1  UNL1        0.1760
     34 O          24.2853   75.4356    1.5932 O.3     1  UNL1       -0.3801
     35 O          23.6500   74.5010    4.2604 O.3     1  UNL1       -0.3794
     36 O          20.9209   73.1027    2.2516 O.3     1  UNL1       -0.3263
     37 H          24.8892   75.5602    2.3383 H       1  UNL1        0.2105
     38 H          23.1081   74.6009    5.0560 H       1  UNL1        0.2105
     39 C          23.0321   74.3321   -1.6558 C.2     1  UNL1        0.2231
     40 C          23.7989   74.0135   -2.9139 C.3     1  UNL1        0.0946
     41 N          23.3079   73.6740   -0.5134 N.am    1  UNL1       -0.2994
     42 O          22.1662   75.1806   -1.6719 O.2     1  UNL1       -0.2751
     43 H          24.0007   72.9947   -0.5002 H       1  UNL1        0.1496
     44 C          21.0646   73.3231    4.6508 C.3     1  UNL1        0.1693
     45 O          19.6622   73.3285    4.3765 O.3     1  UNL1       -0.3794
     46 H          19.2110   73.4164    5.2270 H       1  UNL1        0.2105
@<TRIPOS>BOND
     1    29    30    1
     2    29    28    1
     3    29    36    1
     4    30    31    1
     5    30    41    1
     6    31    32    1
     7    31    34    1
     8    32    33    1
     9    32    35    1
    10    33    44    1
    11    33    36    1
    12    44    45    1
    13    39    40    1
    14    39    41   am
    15    39    42    2
    16    41    43    1
    17    28    25    1
    18    34    37    1
    19    35    38    1
    20    45    46    1
    21    15    16   ar
    22    15    20   ar
    23    15     6    1
    24    16    17   ar
    25    16    21    2
    26    17    18   ar
    27    17    23    1
    28    18    19   ar
    29    18    22    2
    30    19    20   ar
    31     6     7    1
    32     6    11    1
    33     7     8    1
    34     7     9    1
    35     8    13    1
    36     9    10    1
    37     9    12    1
    38    10    11    1
    39    10     5    1
    40    12    14    1
    41     5     4    1
    42     4     1    1
    43     1     2    2
    44     1     3    1
    45     1    24    1
    46    24    25    1
    47    25    26    2
    48    25    27    1
@<TRIPOS>MOLECULE
UD1
 46 48 0 0 0
SMALL
GASTEIGER

@<TRIPOS>ATOM
      1 P          21.8017   71.3494   -0.8358 P.3     1  UNL1        0.2189
      2 O          20.7282   70.3327   -0.7847 O.2     1  UNL1       -0.5170
      3 O          23.2273   70.6173   -0.9924 O.3     1  UNL1       -0.4371
      4 O          21.7888   72.2115    0.5241 O.3     1  UNL1       -0.3112
      5 C          21.8413   71.2797    1.6054 C.3     1  UNL1        0.1811
      6 C          23.1821   73.8779    3.6980 C.3     1  UNL1        0.2383
      7 C          21.8442   74.4551    3.1717 C.3     1  UNL1        0.1895
      8 O          21.2629   75.3472    4.1232 O.3     1  UNL1       -0.3779
      9 C          20.9795   73.1777    3.0106 C.3     1  UNL1        0.1713
     10 C          22.0107   72.0360    2.9239 C.3     1  UNL1        0.1764
     11 O          23.3177   72.6324    2.9811 O.3     1  UNL1       -0.3308
     12 O          20.1262   73.0050    4.1441 O.3     1  UNL1       -0.3794
     13 H          20.4374   75.6703    3.7363 H       1  UNL1        0.2106
     14 H          19.5467   73.7777    4.1778 H       1  UNL1        0.2105
     15 N          24.2940   74.7767    3.3861 N.ar    1  UNL1       -0.2551
     16 C          25.1594   75.1267    4.3535 C.ar    1  UNL1        0.3323
     17 N          26.1935   75.9487    4.0943 N.ar    1  UNL1       -0.2743
     18 C          26.3730   76.4443    2.8534 C.ar    1  UNL1        0.2626
     19 C          25.4660   76.0888    1.8268 C.ar    1  UNL1        0.0795
     20 C          24.4405   75.2583    2.1131 C.ar    1  UNL1        0.0869
     21 O          25.0108   74.6878    5.4778 O.2     1  UNL1       -0.2464
     22 O          27.3049   77.1914    2.6190 O.2     1  UNL1       -0.2670
     23 H          26.8108   76.1869    4.8031 H       1  UNL1        0.1734
     24 O          21.5576   72.3250   -2.0918 O.3     1  UNL1       -0.2703
     25 P          22.1850   71.5914   -3.3792 P.3     1  UNL1        0.2208
     26 O          22.0747   70.1253   -3.2139 O.2     1  UNL1       -0.5170
     27 O          23.7356   71.9988   -3.5273 O.3     1  UNL1       -0.4371
     28 O          21.3843   72.0442   -4.6999 O.3     1  UNL1       -0.2865
     29 C          20.0648   72.3997   -4.2831 C.3     1  UNL1        0.2611
     30 C          19.0679   71.3812   -4.8388 C.3     1  UNL1        0.1582
     31 C          19.1666   71.3664   -6.3684 C.3     1  UNL1        0.1625
     32 C          18.9918   72.7985   -6.8847 C.3     1  UNL1        0.1686
     33 C          19.9967   73.7097   -6.1767 C.3     1  UNL1        0.1760
     34 O          18.1399   70.5311   -6.9064 O.3     1  UNL1       -0.3801
     35 O          19.2258   72.8304   -8.2939 O.3     1  UNL1       -0.3794
     36 O          19.7481   73.7015   -4.7715 O.3     1  UNL1       -0.3263
     37 H          18.2392   70.5506   -7.8682 H       1  UNL1        0.2105
     38 H          19.1064   73.7481   -8.5766 H       1  UNL1        0.2105
     39 C          18.3900   69.2191   -3.9444 C.2     1  UNL1        0.2231
     40 C          18.7147   67.8500   -3.4037 C.3     1  UNL1        0.0946
     41 N          19.3828   70.0509   -4.3140 N.am    1  UNL1       -0.2994
     42 O          17.2345   69.5723   -4.0463 O.2     1  UNL1       -0.2751
     43 H          20.3076   69.7685   -4.2323 H       1  UNL1        0.1496
     44 C          19.8523   75.1369   -6.7091 C.3     1  UNL1        0.1693
     45 O          20.6553   75.2921   -7.8809 O.3     1  UNL1       -0.3794
     46 H          20.5361   76.2027   -8.1832 H       1  UNL1        0.2105
@<TRIPOS>BOND
     1    29    30    1
     2    29    28    1
     3    29    36    1
     4    30    31    1
     5    30    41    1
     6    31    32    1
     7    31    34    1
     8    32    33    1
     9    32    35    1
    10    33    44    1
    11    33    36    1
    12    44    45    1
    13    39    40    1
    14    39    41   am
    15    39    42    2
    16    41    43    1
    17    28    25    1
    18    34    37    1
    19    35    38    1
    20    45    46    1
    21    15    16   ar
    22    15    20   ar
    23    15     6    1
    24    16    17   ar
    25    16    21    2
    26    17    18   ar
    27    17    23    1
    28    18    19   ar
    29    18    22    2
    30    19    20   ar
    31     6     7    1
    32     6    11    1
    33     7     8    1
    34     7     9    1
    35     8    13    1
    36     9    10    1
    37     9    12    1
    38    10    11    1
    39    10     5    1
    40    12    14    1
    41     5     4    1
    42     4     1    1
    43     1     2    2
    44     1     3    1
    45     1    24    1
    46    24    25    1
    47    25    26    2
    48    25    27    1
@<TRIPOS>MOLECULE
UD1
 46 48 0 0 0
SMALL
GASTEIGER

@<TRIPOS>ATOM
      1 P          21.2902   70.5599   -2.2991 P.3     1  UNL1        0.2189
      2 O          21.1294   69.2078   -2.8777 O.2     1  UNL1       -0.5170
      3 O          20.2056   70.7754   -1.1288 O.3     1  UNL1       -0.4371
      4 O          21.0649   71.6650   -3.4484 O.3     1  UNL1       -0.3112
      5 C          19.7752   72.2371   -3.2253 C.3     1  UNL1        0.1811
      6 C          19.0253   73.1537   -6.6201 C.3     1  UNL1        0.2383
      7 C          17.6394   72.9732   -5.9516 C.3     1  UNL1        0.1895
      8 O          16.6698   73.8384   -6.5435 O.3     1  UNL1       -0.3779
      9 C          17.9287   73.3873   -4.4853 C.3     1  UNL1        0.1713
     10 C          19.4550   73.2280   -4.3455 C.3     1  UNL1        0.1764
     11 O          19.9511   72.7265   -5.5984 O.3     1  UNL1       -0.3308
     12 O          17.5383   74.7440   -4.2622 O.3     1  UNL1       -0.3794
     13 H          15.8335   73.6773   -6.0851 H       1  UNL1        0.2106
     14 H          16.5864   74.7906   -4.4227 H       1  UNL1        0.2105
     15 N          19.1425   72.3085   -7.8089 N.ar    1  UNL1       -0.2551
     16 C          18.8071   72.8025   -9.0134 C.ar    1  UNL1        0.3323
     17 N          18.9087   72.0491  -10.1244 N.ar    1  UNL1       -0.2743
     18 C          19.3428   70.7751  -10.0440 C.ar    1  UNL1        0.2626
     19 C          19.6935   70.2404   -8.7815 C.ar    1  UNL1        0.0795
     20 C          19.5871   71.0199   -7.6840 C.ar    1  UNL1        0.0869
     21 O          18.4141   73.9498   -9.1021 O.2     1  UNL1       -0.2464
     22 O          19.4304   70.0915  -11.0472 O.2     1  UNL1       -0.2670
     23 H          18.6670   72.4233  -10.9856 H       1  UNL1        0.1734
     24 O          22.7728   70.7113   -1.6926 O.3     1  UNL1       -0.2703
     25 P          22.6535   70.4667   -0.1067 P.3     1  UNL1        0.2208
     26 O          23.7631   69.5977    0.3431 O.2     1  UNL1       -0.5170
     27 O          21.2476   69.7546    0.2230 O.3     1  UNL1       -0.4371
     28 O          22.7318   71.8783    0.6627 O.3     1  UNL1       -0.2865
     29 C          21.4019   72.2009    1.0733 C.3     1  UNL1        0.2611
     30 C          21.1293   73.6786    0.7866 C.3     1  UNL1        0.1582
     31 C          22.1518   74.5330    1.5442 C.3     1  UNL1        0.1625
     32 C          22.1188   74.1391    3.0247 C.3     1  UNL1        0.1686
     33 C          22.3199   72.6268    3.1427 C.3     1  UNL1        0.1760
     34 O          21.8174   75.9152    1.4055 O.3     1  UNL1       -0.3801
     35 O          23.1644   74.8176    3.7232 O.3     1  UNL1       -0.3794
     36 O          21.2619   71.9458    2.4692 O.3     1  UNL1       -0.3263
     37 H          22.4848   76.4147    1.8958 H       1  UNL1        0.2105
     38 H          23.1079   74.5410    4.6488 H       1  UNL1        0.2105
     39 C          22.4280   74.3242   -1.1706 C.2     1  UNL1        0.2231
     40 C          22.5514   74.5825   -2.6506 C.3     1  UNL1        0.0946
     41 N          21.2498   73.9291   -0.6511 N.am    1  UNL1       -0.2994
     42 O          23.3895   74.4729   -0.4470 O.2     1  UNL1       -0.2751
     43 H          20.4801   73.8103   -1.2299 H       1  UNL1        0.1496
     44 C          22.3210   72.2274    4.6197 C.3     1  UNL1        0.1693
     45 O          21.3268   72.9799    5.3178 O.3     1  UNL1       -0.3794
     46 H          21.3609   72.6987    6.2422 H       1  UNL1        0.2105
@<TRIPOS>BOND
     1    29    30    1
     2    29    28    1
     3    29    36    1
     4    30    31    1
     5    30    41    1
     6    31    32    1
     7    31    34    1
     8    32    33    1
     9    32    35    1
    10    33    44    1
    11    33    36    1
    12    44    45    1
    13    39    40    1
    14    39    41   am
    15    39    42    2
    16    41    43    1
    17    28    25    1
    18    34    37    1
    19    35    38    1
    20    45    46    1
    21    15    16   ar
    22    15    20   ar
    23    15     6    1
    24    16    17   ar
    25    16    21    2
    26    17    18   ar
    27    17    23    1
    28    18    19   ar
    29    18    22    2
    30    19    20   ar
    31     6     7    1
    32     6    11    1
    33     7     8    1
    34     7     9    1
    35     8    13    1
    36     9    10    1
    37     9    12    1
    38    10    11    1
    39    10     5    1
    40    12    14    1
    41     5     4    1
    42     4     1    1
    43     1     2    2
    44     1     3    1
    45     1    24    1
    46    24    25    1
    47    25    26    2
    48    25    27    1
@<TRIPOS>MOLECULE
UD1
 46 48 0 0 0
SMALL
GASTEIGER

@<TRIPOS>ATOM
      1 P          21.6808   70.6851   -0.6475 P.3     1  UNL1        0.2189
      2 O          20.7446   69.6704   -1.1793 O.2     1  UNL1       -0.5170
      3 O          23.1680   70.0700   -0.5989 O.3     1  UNL1       -0.4371
      4 O          21.2267   71.1067    0.8387 O.3     1  UNL1       -0.3112
      5 C          21.6029   72.4734    1.0144 C.3     1  UNL1        0.1811
      6 C          23.3389   74.1702    3.6666 C.3     1  UNL1        0.2383
      7 C          21.9670   74.8848    3.5812 C.3     1  UNL1        0.1895
      8 O          21.5657   75.3755    4.8608 O.3     1  UNL1       -0.3779
      9 C          21.0326   73.7405    3.1094 C.3     1  UNL1        0.1713
     10 C          21.9897   72.7133    2.4745 C.3     1  UNL1        0.1764
     11 O          23.3169   73.2620    2.5449 O.3     1  UNL1       -0.3308
     12 O          20.3408   73.1686    4.2217 O.3     1  UNL1       -0.3794
     13 H          20.7089   75.8075    4.7391 H       1  UNL1        0.2106
     14 H          19.8067   73.8738    4.6109 H       1  UNL1        0.2105
     15 N          24.4343   75.1310    3.5313 N.ar    1  UNL1       -0.2551
     16 C          25.5247   75.0120    4.3087 C.ar    1  UNL1        0.3323
     17 N          26.5491   75.8790    4.2032 N.ar    1  UNL1       -0.2743
     18 C          26.4927   76.8928    3.3161 C.ar    1  UNL1        0.2626
     19 C          25.3481   77.0333    2.4957 C.ar    1  UNL1        0.0795
     20 C          24.3373   76.1465    2.6185 C.ar    1  UNL1        0.0869
     21 O          25.5905   74.1028    5.1135 O.2     1  UNL1       -0.2464
     22 O          27.4162   77.6801    3.2232 O.2     1  UNL1       -0.2670
     23 H          27.3300   75.7754    4.7685 H       1  UNL1        0.1734
     24 O          21.6658   71.9811   -1.6009 O.3     1  UNL1       -0.2703
     25 P          21.5938   71.4430   -3.1157 P.3     1  UNL1        0.2208
     26 O          21.7518   69.9720   -3.1246 O.2     1  UNL1       -0.5170
     27 O          22.7741   72.1141   -3.9810 O.3     1  UNL1       -0.4371
     28 O          20.1707   71.8336   -3.7582 O.3     1  UNL1       -0.2865
     29 C          20.2140   71.4410   -5.1312 C.3     1  UNL1        0.2611
     30 C          19.7229   72.5980   -6.0030 C.3     1  UNL1        0.1582
     31 C          18.2931   72.9650   -5.5900 C.3     1  UNL1        0.1625
     32 C          17.4292   71.7003   -5.6378 C.3     1  UNL1        0.1686
     33 C          18.0919   70.6118   -4.7908 C.3     1  UNL1        0.1760
     34 O          17.7695   73.9409   -6.4927 O.3     1  UNL1       -0.3801
     35 O          16.1304   71.9888   -5.1168 O.3     1  UNL1       -0.3794
     36 O          19.3784   70.3018   -5.3249 O.3     1  UNL1       -0.3263
     37 H          16.8713   74.1424   -6.1962 H       1  UNL1        0.2105
     38 H          15.6210   71.1673   -5.1645 H       1  UNL1        0.2105
     39 C          21.5705   74.0170   -6.7152 C.2     1  UNL1        0.2231
     40 C          22.4728   75.2094   -6.5249 C.3     1  UNL1        0.0946
     41 N          20.5994   73.7565   -5.8189 N.am    1  UNL1       -0.2994
     42 O          21.7190   73.2913   -7.6752 O.2     1  UNL1       -0.2751
     43 H          20.4805   74.3370   -5.0504 H       1  UNL1        0.1496
     44 C          17.2202   69.3545   -4.8055 C.3     1  UNL1        0.1693
     45 O          16.4541   69.3195   -6.0114 O.3     1  UNL1       -0.3794
     46 H          15.9202   68.5142   -5.9804 H       1  UNL1        0.2105
@<TRIPOS>BOND
     1    29    30    1
     2    29    28    1
     3    29    36    1
     4    30    31    1
     5    30    41    1
     6    31    32    1
     7    31    34    1
     8    32    33    1
     9    32    35    1
    10    33    44    1
    11    33    36    1
    12    44    45    1
    13    39    40    1
    14    39    41   am
    15    39    42    2
    16    41    43    1
    17    28    25    1
    18    34    37    1
    19    35    38    1
    20    45    46    1
    21    15    16   ar
    22    15    20   ar
    23    15     6    1
    24    16    17   ar
    25    16    21    2
    26    17    18   ar
    27    17    23    1
    28    18    19   ar
    29    18    22    2
    30    19    20   ar
    31     6     7    1
    32     6    11    1
    33     7     8    1
    34     7     9    1
    35     8    13    1
    36     9    10    1
    37     9    12    1
    38    10    11    1
    39    10     5    1
    40    12    14    1
    41     5     4    1
    42     4     1    1
    43     1     2    2
    44     1     3    1
    45     1    24    1
    46    24    25    1
    47    25    26    2
    48    25    27    1
@<TRIPOS>MOLECULE
UD1
 46 48 0 0 0
SMALL
GASTEIGER

@<TRIPOS>ATOM
      1 P          22.8821   71.8359   -3.3325 P.3     1  UNL1        0.2189
      2 O          23.4774   70.4882   -3.1980 O.2     1  UNL1       -0.5170
      3 O          23.9099   72.8016   -4.1094 O.3     1  UNL1       -0.4371
      4 O          22.5829   72.4383   -1.8695 O.3     1  UNL1       -0.3112
      5 C          21.2962   71.9565   -1.4787 C.3     1  UNL1        0.1811
      6 C          20.5332   74.0902    1.3128 C.3     1  UNL1        0.2383
      7 C          21.5581   74.8966    0.4766 C.3     1  UNL1        0.1895
      8 O          21.3317   76.3006    0.6060 O.3     1  UNL1       -0.3779
      9 C          21.2507   74.4172   -0.9659 C.3     1  UNL1        0.1713
     10 C          20.5278   73.0710   -0.7669 C.3     1  UNL1        0.1764
     11 O          20.4861   72.8105    0.6465 O.3     1  UNL1       -0.3308
     12 O          20.4029   75.3537   -1.6345 O.3     1  UNL1       -0.3794
     13 H          21.9997   76.7432    0.0645 H       1  UNL1        0.2106
     14 H          20.8869   76.1893   -1.6747 H       1  UNL1        0.2105
     15 N          20.9948   73.9368    2.6929 N.ar    1  UNL1       -0.2551
     16 C          21.3151   72.7162    3.1566 C.ar    1  UNL1        0.3323
     17 N          21.7462   72.5461    4.4205 N.ar    1  UNL1       -0.2743
     18 C          21.8553   73.6038    5.2495 C.ar    1  UNL1        0.2626
     19 C          21.5156   74.8936    4.7761 C.ar    1  UNL1        0.0795
     20 C          21.0910   75.0365    3.5023 C.ar    1  UNL1        0.0869
     21 O          21.2221   71.7524    2.4210 O.2     1  UNL1       -0.2464
     22 O          22.2404   73.4505    6.3938 O.2     1  UNL1       -0.2670
     23 H          21.9775   71.6591    4.7368 H       1  UNL1        0.1734
     24 O          21.5074   71.7350   -4.1625 O.3     1  UNL1       -0.2703
     25 P          21.5208   72.9372   -5.2320 P.3     1  UNL1        0.2208
     26 O          22.7615   72.8691   -6.0350 O.2     1  UNL1       -0.5170
     27 O          21.4610   74.3470   -4.4566 O.3     1  UNL1       -0.4371
     28 O          20.2446   72.8066   -6.2041 O.3     1  UNL1       -0.2865
     29 C          20.2793   71.4905   -6.7590 C.3     1  UNL1        0.2611
     30 C          20.2440   71.5849   -8.2854 C.3     1  UNL1        0.1582
     31 C          18.9680   72.3190   -8.7128 C.3     1  UNL1        0.1625
     32 C          17.7631   71.6195   -8.0747 C.3     1  UNL1        0.1686
     33 C          17.9843   71.5253   -6.5636 C.3     1  UNL1        0.1760
     34 O          18.8486   72.2825  -10.1361 O.3     1  UNL1       -0.3801
     35 O          16.5780   72.3724   -8.3396 O.3     1  UNL1       -0.3794
     36 O          19.1522   70.7506   -6.2946 O.3     1  UNL1       -0.3263
     37 H          18.0349   72.7547  -10.3604 H       1  UNL1        0.2105
     38 H          15.8458   71.8982   -7.9205 H       1  UNL1        0.2105
     39 C          21.3335   73.6495   -8.9815 C.2     1  UNL1        0.2231
     40 C          22.5408   74.4096   -9.4683 C.3     1  UNL1        0.0946
     41 N          21.4166   72.3239   -8.7578 N.am    1  UNL1       -0.2994
     42 O          20.2868   74.2313   -8.7918 O.2     1  UNL1       -0.2751
     43 H          22.2542   71.8580   -8.9097 H       1  UNL1        0.1496
     44 C          16.7715   70.8571   -5.9126 C.3     1  UNL1        0.1693
     45 O          16.1611   69.9637   -6.8461 O.3     1  UNL1       -0.3794
     46 H          15.4032   69.5651   -6.3974 H       1  UNL1        0.2105
@<TRIPOS>BOND
     1    29    30    1
     2    29    28    1
     3    29    36    1
     4    30    31    1
     5    30    41    1
     6    31    32    1
     7    31    34    1
     8    32    33    1
     9    32    35    1
    10    33    44    1
    11    33    36    1
    12    44    45    1
    13    39    40    1
    14    39    41   am
    15    39    42    2
    16    41    43    1
    17    28    25    1
    18    34    37    1
    19    35    38    1
    20    45    46    1
    21    15    16   ar
    22    15    20   ar
    23    15     6    1
    24    16    17   ar
    25    16    21    2
    26    17    18   ar
    27    17    23    1
    28    18    19   ar
    29    18    22    2
    30    19    20   ar
    31     6     7    1
    32     6    11    1
    33     7     8    1
    34     7     9    1
    35     8    13    1
    36     9    10    1
    37     9    12    1
    38    10    11    1
    39    10     5    1
    40    12    14    1
    41     5     4    1
    42     4     1    1
    43     1     2    2
    44     1     3    1
    45     1    24    1
    46    24    25    1
    47    25    26    2
    48    25    27    1
@<TRIPOS>MOLECULE
UD1
 46 48 0 0 0
SMALL
GASTEIGER

@<TRIPOS>ATOM
      1 P          21.9640   70.4253   -0.3359 P.3     1  UNL1        0.2189
      2 O          22.8668   71.3588   -1.0446 O.2     1  UNL1       -0.5170
      3 O          22.8154   69.1820    0.2314 O.3     1  UNL1       -0.4371
      4 O          20.8424   69.8850   -1.3572 O.3     1  UNL1       -0.3112
      5 C          21.0052   70.6145   -2.5744 C.3     1  UNL1        0.1811
      6 C          18.4664   71.0170   -5.0883 C.3     1  UNL1        0.2383
      7 C          18.1231   69.6711   -4.4020 C.3     1  UNL1        0.1895
      8 O          16.7156   69.4310   -4.4231 O.3     1  UNL1       -0.3779
      9 C          18.6225   69.9079   -2.9529 C.3     1  UNL1        0.1713
     10 C          19.6360   71.0605   -3.0898 C.3     1  UNL1        0.1764
     11 O          19.7235   71.3921   -4.4861 O.3     1  UNL1       -0.3308
     12 O          17.5360   70.2866   -2.1049 O.3     1  UNL1       -0.3794
     13 H          16.5697   68.5820   -3.9832 H       1  UNL1        0.2106
     14 H          16.9097   69.5505   -2.1080 H       1  UNL1        0.2105
     15 N          18.6187   70.8394   -6.5329 N.ar    1  UNL1       -0.2551
     16 C          17.5268   70.7556   -7.3126 C.ar    1  UNL1        0.3323
     17 N          17.6370   70.5961   -8.6448 N.ar    1  UNL1       -0.2743
     18 C          18.8531   70.5081   -9.2203 C.ar    1  UNL1        0.2626
     19 C          20.0109   70.5888   -8.4104 C.ar    1  UNL1        0.0795
     20 C          19.8716   70.7542   -7.0776 C.ar    1  UNL1        0.0869
     21 O          16.4230   70.8332   -6.8084 O.2     1  UNL1       -0.2464
     22 O          18.9538   70.3591  -10.4241 O.2     1  UNL1       -0.2670
     23 H          16.8387   70.5423   -9.1926 H       1  UNL1        0.1734
     24 O          21.2518   71.1917    0.8866 O.3     1  UNL1       -0.2703
     25 P          21.5669   72.7585    0.6998 P.3     1  UNL1        0.2208
     26 O          20.3248   73.5381    0.8953 O.2     1  UNL1       -0.5170
     27 O          22.1353   73.0192   -0.7839 O.3     1  UNL1       -0.4371
     28 O          22.6654   73.2191    1.7822 O.3     1  UNL1       -0.2865
     29 C          22.2949   74.5286    2.2173 C.3     1  UNL1        0.2611
     30 C          23.4743   75.4811    2.0133 C.3     1  UNL1        0.1582
     31 C          24.6780   74.9664    2.8106 C.3     1  UNL1        0.1625
     32 C          24.2497   74.7617    4.2675 C.3     1  UNL1        0.1686
     33 C          23.0134   73.8608    4.3016 C.3     1  UNL1        0.1760
     34 O          25.7375   75.9231    2.7493 O.3     1  UNL1       -0.3801
     35 O          25.3127   74.1447    4.9961 O.3     1  UNL1       -0.3794
     36 O          21.9411   74.4867    3.5981 O.3     1  UNL1       -0.3263
     37 H          26.4723   75.5595    3.2623 H       1  UNL1        0.2105
     38 H          25.0011   74.0338    5.9055 H       1  UNL1        0.2105
     39 C          23.4370   76.5969   -0.1518 C.2     1  UNL1        0.2231
     40 C          23.7893   76.6560   -1.6163 C.3     1  UNL1        0.0946
     41 N          23.8167   75.5392    0.5907 N.am    1  UNL1       -0.2994
     42 O          22.8111   77.5015    0.3581 O.2     1  UNL1       -0.2751
     43 H          24.3174   74.8151    0.1828 H       1  UNL1        0.1496
     44 C          22.5966   73.6236    5.7546 C.3     1  UNL1        0.1693
     45 O          21.2240   73.2286    5.7985 O.3     1  UNL1       -0.3794
     46 H          21.0023   73.0899    6.7292 H       1  UNL1        0.2105
@<TRIPOS>BOND
     1    29    30    1
     2    29    28    1
     3    29    36    1
     4    30    31    1
     5    30    41    1
     6    31    32    1
     7    31    34    1
     8    32    33    1
     9    32    35    1
    10    33    44    1
    11    33    36    1
    12    44    45    1
    13    39    40    1
    14    39    41   am
    15    39    42    2
    16    41    43    1
    17    28    25    1
    18    34    37    1
    19    35    38    1
    20    45    46    1
    21    15    16   ar
    22    15    20   ar
    23    15     6    1
    24    16    17   ar
    25    16    21    2
    26    17    18   ar
    27    17    23    1
    28    18    19   ar
    29    18    22    2
    30    19    20   ar
    31     6     7    1
    32     6    11    1
    33     7     8    1
    34     7     9    1
    35     8    13    1
    36     9    10    1
    37     9    12    1
    38    10    11    1
    39    10     5    1
    40    12    14    1
    41     5     4    1
    42     4     1    1
    43     1     2    2
    44     1     3    1
    45     1    24    1
    46    24    25    1
    47    25    26    2
    48    25    27    1
@<TRIPOS>MOLECULE
UD1
 46 48 0 0 0
SMALL
GASTEIGER

@<TRIPOS>ATOM
      1 P          23.3010   73.1881   -4.1393 P.3     1  UNL1        0.2189
      2 O          22.2693   73.8949   -3.3488 O.2     1  UNL1       -0.5170
      3 O          24.7131   73.9446   -3.9773 O.3     1  UNL1       -0.4371
      4 O          22.8735   73.1784   -5.6917 O.3     1  UNL1       -0.3112
      5 C          22.4853   74.5127   -6.0225 C.3     1  UNL1        0.1811
      6 C          19.6341   73.5559   -7.9929 C.3     1  UNL1        0.2383
      7 C          19.2291   74.9086   -7.3554 C.3     1  UNL1        0.1895
      8 O          18.3385   75.6292   -8.2080 O.3     1  UNL1       -0.3779
      9 C          20.5941   75.6357   -7.2398 C.3     1  UNL1        0.1713
     10 C          21.6306   74.4966   -7.2907 C.3     1  UNL1        0.1764
     11 O          20.9045   73.2585   -7.3753 O.3     1  UNL1       -0.3308
     12 O          20.7759   76.5356   -8.3352 O.3     1  UNL1       -0.3794
     13 H          18.1256   76.4569   -7.7552 H       1  UNL1        0.2106
     14 H          20.0642   77.1874   -8.2824 H       1  UNL1        0.2105
     15 N          18.6515   72.5183   -7.6778 N.ar    1  UNL1       -0.2551
     16 C          17.5267   72.4221   -8.4077 C.ar    1  UNL1        0.3323
     17 N          16.6074   71.4751   -8.1428 N.ar    1  UNL1       -0.2743
     18 C          16.7980   70.6080   -7.1280 C.ar    1  UNL1        0.2626
     19 C          17.9750   70.7018   -6.3478 C.ar    1  UNL1        0.0795
     20 C          18.8831   71.6578   -6.6386 C.ar    1  UNL1        0.0869
     21 O          17.3404   73.1968   -9.3263 O.2     1  UNL1       -0.2464
     22 O          15.9653   69.7544   -6.8846 O.2     1  UNL1       -0.2670
     23 H          15.8040   71.4172   -8.6826 H       1  UNL1        0.1734
     24 O          23.4382   71.6744   -3.6113 O.3     1  UNL1       -0.2703
     25 P          22.0964   71.3465   -2.7859 P.3     1  UNL1        0.2208
     26 O          22.0535   69.9023   -2.4679 O.2     1  UNL1       -0.5170
     27 O          20.8109   71.7384   -3.6726 O.3     1  UNL1       -0.4371
     28 O          22.0837   72.1973   -1.4197 O.3     1  UNL1       -0.2865
     29 C          20.8804   71.8554   -0.7296 C.3     1  UNL1        0.2611
     30 C          20.1296   73.1356   -0.3589 C.3     1  UNL1        0.1582
     31 C          21.0304   74.0072    0.5234 C.3     1  UNL1        0.1625
     32 C          21.5138   73.1677    1.7107 C.3     1  UNL1        0.1686
     33 C          22.1630   71.8864    1.1836 C.3     1  UNL1        0.1760
     34 O          20.2902   75.1332    0.9987 O.3     1  UNL1       -0.3801
     35 O          22.4702   73.9140    2.4658 O.3     1  UNL1       -0.3794
     36 O          21.2029   71.1252    0.4520 O.3     1  UNL1       -0.3263
     37 H          20.8937   75.6528    1.5474 H       1  UNL1        0.2105
     38 H          22.7481   73.3495    3.2011 H       1  UNL1        0.2105
     39 C          18.5635   74.4359   -1.6971 C.2     1  UNL1        0.2231
     40 C          18.2031   75.1897   -2.9517 C.3     1  UNL1        0.0946
     41 N          19.7792   73.8683   -1.5773 N.am    1  UNL1       -0.2994
     42 O          17.7587   74.3397   -0.7953 O.2     1  UNL1       -0.2751
     43 H          20.4233   73.9450   -2.2989 H       1  UNL1        0.1496
     44 C          22.6785   71.0557    2.3607 C.3     1  UNL1        0.1693
     45 O          23.3972   69.9236    1.8668 O.3     1  UNL1       -0.3794
     46 H          23.7036   69.4284    2.6384 H       1  UNL1        0.2105
@<TRIPOS>BOND
     1    29    30    1
     2    29    28    1
     3    29    36    1
     4    30    31    1
     5    30    41    1
     6    31    32    1
     7    31    34    1
     8    32    33    1
     9    32    35    1
    10    33    44    1
    11    33    36    1
    12    44    45    1
    13    39    40    1
    14    39    41   am
    15    39    42    2
    16    41    43    1
    17    28    25    1
    18    34    37    1
    19    35    38    1
    20    45    46    1
    21    15    16   ar
    22    15    20   ar
    23    15     6    1
    24    16    17   ar
    25    16    21    2
    26    17    18   ar
    27    17    23    1
    28    18    19   ar
    29    18    22    2
    30    19    20   ar
    31     6     7    1
    32     6    11    1
    33     7     8    1
    34     7     9    1
    35     8    13    1
    36     9    10    1
    37     9    12    1
    38    10    11    1
    39    10     5    1
    40    12    14    1
    41     5     4    1
    42     4     1    1
    43     1     2    2
    44     1     3    1
    45     1    24    1
    46    24    25    1
    47    25    26    2
    48    25    27    1
@<TRIPOS>MOLECULE
UD1
 46 48 0 0 0
SMALL
GASTEIGER

@<TRIPOS>ATOM
      1 P          20.3729   70.0271   -2.2098 P.3     1  UNL1        0.2189
      2 O          21.5870   69.5996   -2.9391 O.2     1  UNL1       -0.5170
      3 O          19.1943   68.9583   -2.4567 O.3     1  UNL1       -0.4371
      4 O          19.9066   71.4721   -2.7456 O.3     1  UNL1       -0.3112
      5 C          19.6948   71.3433   -4.1523 C.3     1  UNL1        0.1811
      6 C          16.7990   71.9498   -6.1954 C.3     1  UNL1        0.2383
      7 C          17.1677   70.4711   -6.4739 C.3     1  UNL1        0.1895
      8 O          16.0034   69.7028   -6.7794 O.3     1  UNL1       -0.3779
      9 C          17.7834   70.0287   -5.1209 C.3     1  UNL1        0.1713
     10 C          18.1938   71.3517   -4.4459 C.3     1  UNL1        0.1764
     11 O          17.8803   72.4159   -5.3605 O.3     1  UNL1       -0.3308
     12 O          16.8129   69.3370   -4.3320 O.3     1  UNL1       -0.3794
     13 H          16.3003   68.7968   -6.9421 H       1  UNL1        0.2106
     14 H          16.5529   68.5527   -4.8334 H       1  UNL1        0.2105
     15 N          16.7427   72.7147   -7.4417 N.ar    1  UNL1       -0.2551
     16 C          17.8143   72.7465   -8.2529 C.ar    1  UNL1        0.3323
     17 N          17.7894   73.4386   -9.4073 N.ar    1  UNL1       -0.2743
     18 C          16.6843   74.1228   -9.7657 C.ar    1  UNL1        0.2626
     19 C          15.5511   74.1027   -8.9181 C.ar    1  UNL1        0.0795
     20 C          15.6014   73.3961   -7.7686 C.ar    1  UNL1        0.0869
     21 O          18.8184   72.1344   -7.9435 O.2     1  UNL1       -0.2464
     22 O          16.6623   74.7528  -10.8069 O.2     1  UNL1       -0.2670
     23 H          18.5698   73.4467   -9.9827 H       1  UNL1        0.1734
     24 O          20.6960   70.1171   -0.6361 O.3     1  UNL1       -0.2703
     25 P          22.2517   70.5061   -0.5024 P.3     1  UNL1        0.2208
     26 O          22.8148   70.7562   -1.8475 O.2     1  UNL1       -0.5170
     27 O          23.0503   69.2951    0.1962 O.3     1  UNL1       -0.4371
     28 O          22.3991   71.8332    0.3962 O.3     1  UNL1       -0.2865
     29 C          21.0921   72.1580    0.8732 C.3     1  UNL1        0.2611
     30 C          20.7792   73.6167    0.5352 C.3     1  UNL1        0.1582
     31 C          21.8329   74.5193    1.1868 C.3     1  UNL1        0.1625
     32 C          21.8973   74.1961    2.6833 C.3     1  UNL1        0.1686
     33 C          22.1289   72.6939    2.8592 C.3     1  UNL1        0.1760
     34 O          21.4690   75.8889    1.0046 O.3     1  UNL1       -0.3801
     35 O          22.9732   74.9204    3.2829 O.3     1  UNL1       -0.3794
     36 O          21.0423   71.9681    2.2855 O.3     1  UNL1       -0.3263
     37 H          22.1574   76.4197    1.4285 H       1  UNL1        0.2105
     38 H          22.9780   74.6876    4.2222 H       1  UNL1        0.2105
     39 C          21.9369   74.2123   -1.5238 C.2     1  UNL1        0.2231
     40 C          21.9648   74.4012   -3.0191 C.3     1  UNL1        0.0946
     41 N          20.8071   73.7999   -0.9174 N.am    1  UNL1       -0.2994
     42 O          22.9315   74.4323   -0.8662 O.2     1  UNL1       -0.2751
     43 H          20.0109   73.6240   -1.4434 H       1  UNL1        0.1496
     44 C          22.2272   72.3654    4.3504 C.3     1  UNL1        0.1693
     45 O          21.2340   73.1015    5.0672 O.3     1  UNL1       -0.3794
     46 H          21.3304   72.8665    6.0000 H       1  UNL1        0.2105
@<TRIPOS>BOND
     1    29    30    1
     2    29    28    1
     3    29    36    1
     4    30    31    1
     5    30    41    1
     6    31    32    1
     7    31    34    1
     8    32    33    1
     9    32    35    1
    10    33    44    1
    11    33    36    1
    12    44    45    1
    13    39    40    1
    14    39    41   am
    15    39    42    2
    16    41    43    1
    17    28    25    1
    18    34    37    1
    19    35    38    1
    20    45    46    1
    21    15    16   ar
    22    15    20   ar
    23    15     6    1
    24    16    17   ar
    25    16    21    2
    26    17    18   ar
    27    17    23    1
    28    18    19   ar
    29    18    22    2
    30    19    20   ar
    31     6     7    1
    32     6    11    1
    33     7     8    1
    34     7     9    1
    35     8    13    1
    36     9    10    1
    37     9    12    1
    38    10    11    1
    39    10     5    1
    40    12    14    1
    41     5     4    1
    42     4     1    1
    43     1     2    2
    44     1     3    1
    45     1    24    1
    46    24    25    1
    47    25    26    2
    48    25    27    1
@<TRIPOS>MOLECULE
UD1
 46 48 0 0 0
SMALL
GASTEIGER

@<TRIPOS>ATOM
      1 P          21.1857   70.5814   -1.5837 P.3     1  UNL1        0.2189
      2 O          21.1799   69.7619   -0.3519 O.2     1  UNL1       -0.5170
      3 O          21.1708   69.6149   -2.8714 O.3     1  UNL1       -0.4371
      4 O          22.5120   71.4940   -1.6142 O.3     1  UNL1       -0.3112
      5 C          22.8434   71.7880   -0.2562 C.3     1  UNL1        0.1811
      6 C          21.9964   74.4135    2.0496 C.3     1  UNL1        0.2383
      7 C          23.4028   74.7966    1.5246 C.3     1  UNL1        0.1895
      8 O          23.5715   76.2145    1.5030 O.3     1  UNL1       -0.3779
      9 C          23.3813   74.2199    0.0851 C.3     1  UNL1        0.1713
     10 C          22.2698   73.1534    0.1257 C.3     1  UNL1        0.1764
     11 O          21.7630   73.1120    1.4705 O.3     1  UNL1       -0.3308
     12 O          23.0660   75.2447   -0.8599 O.3     1  UNL1       -0.3794
     13 H          24.4628   76.3855    1.1686 H       1  UNL1        0.2106
     14 H          23.7650   75.9090   -0.7950 H       1  UNL1        0.2105
     15 N          21.9906   74.3369    3.5109 N.ar    1  UNL1       -0.2551
     16 C          21.6522   73.1853    4.1164 C.ar    1  UNL1        0.3323
     17 N          21.6420   73.0849    5.4588 N.ar    1  UNL1       -0.2743
     18 C          21.9645   74.1484    6.2222 C.ar    1  UNL1        0.2626
     19 C          22.3169   75.3687    5.5979 C.ar    1  UNL1        0.0795
     20 C          22.3241   75.4401    4.2495 C.ar    1  UNL1        0.0869
     21 O          21.3590   72.2172    3.4415 O.2     1  UNL1       -0.2464
     22 O          21.9509   74.0602    7.4360 O.2     1  UNL1       -0.2670
     23 H          21.4000   72.2450    5.8786 H       1  UNL1        0.1734
     24 O          19.8836   71.5264   -1.6056 O.3     1  UNL1       -0.2703
     25 P          18.9628   71.0207   -2.8245 P.3     1  UNL1        0.2208
     26 O          17.6291   71.6542   -2.7308 O.2     1  UNL1       -0.5170
     27 O          18.8025   69.4205   -2.7490 O.3     1  UNL1       -0.4371
     28 O          19.6513   71.4242   -4.2222 O.3     1  UNL1       -0.2865
     29 C          19.3936   72.8147   -4.4251 C.3     1  UNL1        0.2611
     30 C          19.0875   73.0612   -5.9035 C.3     1  UNL1        0.1582
     31 C          20.2837   72.6040   -6.7460 C.3     1  UNL1        0.1625
     32 C          21.5468   73.2925   -6.2180 C.3     1  UNL1        0.1686
     33 C          21.6689   73.0259   -4.7162 C.3     1  UNL1        0.1760
     34 O          20.0730   72.9651   -8.1122 O.3     1  UNL1       -0.3801
     35 O          22.6931   72.7702   -6.8923 O.3     1  UNL1       -0.3794
     36 O          20.5386   73.5705   -4.0364 O.3     1  UNL1       -0.3263
     37 H          20.8471   72.6591   -8.6046 H       1  UNL1        0.2105
     38 H          23.4641   73.2292   -6.5299 H       1  UNL1        0.2105
     39 C          18.0229   71.0626   -6.8014 C.2     1  UNL1        0.2231
     40 C          16.7964   70.2821   -7.2000 C.3     1  UNL1        0.0946
     41 N          17.8964   72.3024   -6.2903 N.am    1  UNL1       -0.2994
     42 O          19.1240   70.5748   -6.9416 O.2     1  UNL1       -0.2751
     43 H          17.0153   72.6931   -6.1783 H       1  UNL1        0.1496
     44 C          22.9450   73.6822   -4.1852 C.3     1  UNL1        0.1693
     45 O          23.9572   72.6880   -4.0150 O.3     1  UNL1       -0.3794
     46 H          24.7420   73.1422   -3.6796 H       1  UNL1        0.2105
@<TRIPOS>BOND
     1    29    30    1
     2    29    28    1
     3    29    36    1
     4    30    31    1
     5    30    41    1
     6    31    32    1
     7    31    34    1
     8    32    33    1
     9    32    35    1
    10    33    44    1
    11    33    36    1
    12    44    45    1
    13    39    40    1
    14    39    41   am
    15    39    42    2
    16    41    43    1
    17    28    25    1
    18    34    37    1
    19    35    38    1
    20    45    46    1
    21    15    16   ar
    22    15    20   ar
    23    15     6    1
    24    16    17   ar
    25    16    21    2
    26    17    18   ar
    27    17    23    1
    28    18    19   ar
    29    18    22    2
    30    19    20   ar
    31     6     7    1
    32     6    11    1
    33     7     8    1
    34     7     9    1
    35     8    13    1
    36     9    10    1
    37     9    12    1
    38    10    11    1
    39    10     5    1
    40    12    14    1
    41     5     4    1
    42     4     1    1
    43     1     2    2
    44     1     3    1
    45     1    24    1
    46    24    25    1
    47    25    26    2
    48    25    27    1
@<TRIPOS>MOLECULE
UD1
 46 48 0 0 0
SMALL
GASTEIGER

@<TRIPOS>ATOM
      1 P          19.4733   69.6846   -2.9869 P.3     1  UNL1        0.2189
      2 O          18.3424   68.9181   -2.4193 O.2     1  UNL1       -0.5170
      3 O          20.8550   68.9271   -2.6561 O.3     1  UNL1       -0.4371
      4 O          19.5016   71.1581   -2.3380 O.3     1  UNL1       -0.3112
      5 C          20.5608   71.1680   -1.3797 C.3     1  UNL1        0.1811
      6 C          21.6503   73.7719    0.8473 C.3     1  UNL1        0.2383
      7 C          22.9425   73.3104    0.1281 C.3     1  UNL1        0.1895
      8 O          23.8684   74.3898   -0.0020 O.3     1  UNL1       -0.3779
      9 C          22.4045   72.8727   -1.2590 C.3     1  UNL1        0.1713
     10 C          20.9056   72.6125   -1.0141 C.3     1  UNL1        0.1764
     11 O          20.6534   72.8367    0.3835 O.3     1  UNL1       -0.3308
     12 O          22.5876   73.9159   -2.2187 O.3     1  UNL1       -0.3794
     13 H          24.6472   74.0379   -0.4550 H       1  UNL1        0.2106
     14 H          23.5392   74.0725   -2.2829 H       1  UNL1        0.2105
     15 N          21.8046   73.6837    2.2999 N.ar    1  UNL1       -0.2551
     16 C          21.7102   72.4888    2.9086 C.ar    1  UNL1        0.3323
     17 N          21.8517   72.3774    4.2427 N.ar    1  UNL1       -0.2743
     18 C          22.0829   73.4720    4.9952 C.ar    1  UNL1        0.2626
     19 C          22.1786   74.7371    4.3680 C.ar    1  UNL1        0.0795
     20 C          22.0379   74.8195    3.0275 C.ar    1  UNL1        0.0869
     21 O          21.5020   71.4923    2.2435 O.2     1  UNL1       -0.2464
     22 O          22.2063   73.3731    6.2020 O.2     1  UNL1       -0.2670
     23 H          21.7853   71.5069    4.6646 H       1  UNL1        0.1734
     24 O          19.2941   69.8041   -4.5814 O.3     1  UNL1       -0.2703
     25 P          17.8800   70.5281   -4.8373 P.3     1  UNL1        0.2208
     26 O          17.5153   71.3317   -3.6498 O.2     1  UNL1       -0.5170
     27 O          16.7464   69.4154   -5.1002 O.3     1  UNL1       -0.4371
     28 O          17.9932   71.4907   -6.1223 O.3     1  UNL1       -0.2865
     29 C          19.3821   71.7667   -6.3123 C.3     1  UNL1        0.2611
     30 C          19.5527   73.2236   -6.7461 C.3     1  UNL1        0.1582
     31 C          18.7725   73.4545   -8.0452 C.3     1  UNL1        0.1625
     32 C          19.2167   72.4110   -9.0757 C.3     1  UNL1        0.1686
     33 C          19.0684   71.0150   -8.4671 C.3     1  UNL1        0.1760
     34 O          19.0441   74.7670   -8.5401 O.3     1  UNL1       -0.3801
     35 O          18.3993   72.5142  -10.2431 O.3     1  UNL1       -0.3794
     36 O          19.9046   70.8994   -7.3164 O.3     1  UNL1       -0.3263
     37 H          18.5342   74.8692   -9.3555 H       1  UNL1        0.2105
     38 H          18.7118   71.8407  -10.8638 H       1  UNL1        0.2105
     39 C          19.7265   74.2730   -4.5546 C.2     1  UNL1        0.2231
     40 C          19.1954   75.1849   -3.4781 C.3     1  UNL1        0.0946
     41 N          19.0375   74.1097   -5.7003 N.am    1  UNL1       -0.2994
     42 O          20.7742   73.6855   -4.3890 O.2     1  UNL1       -0.2751
     43 H          18.1989   74.5796   -5.8330 H       1  UNL1        0.1496
     44 C          19.4789   69.9634   -9.5000 C.3     1  UNL1        0.1693
     45 O          18.9562   70.3234  -10.7804 O.3     1  UNL1       -0.3794
     46 H          19.2367   69.6366  -11.4003 H       1  UNL1        0.2105
@<TRIPOS>BOND
     1    29    30    1
     2    29    28    1
     3    29    36    1
     4    30    31    1
     5    30    41    1
     6    31    32    1
     7    31    34    1
     8    32    33    1
     9    32    35    1
    10    33    44    1
    11    33    36    1
    12    44    45    1
    13    39    40    1
    14    39    41   am
    15    39    42    2
    16    41    43    1
    17    28    25    1
    18    34    37    1
    19    35    38    1
    20    45    46    1
    21    15    16   ar
    22    15    20   ar
    23    15     6    1
    24    16    17   ar
    25    16    21    2
    26    17    18   ar
    27    17    23    1
    28    18    19   ar
    29    18    22    2
    30    19    20   ar
    31     6     7    1
    32     6    11    1
    33     7     8    1
    34     7     9    1
    35     8    13    1
    36     9    10    1
    37     9    12    1
    38    10    11    1
    39    10     5    1
    40    12    14    1
    41     5     4    1
    42     4     1    1
    43     1     2    2
    44     1     3    1
    45     1    24    1
    46    24    25    1
    47    25    26    2
    48    25    27    1
@<TRIPOS>MOLECULE
UD1
 46 48 0 0 0
SMALL
GASTEIGER

@<TRIPOS>ATOM
      1 P          22.2257   75.1479   -8.0461 P.3     1  UNL1        0.2189
      2 O          22.8869   74.1056   -7.2304 O.2     1  UNL1       -0.5170
      3 O          21.6203   76.2832   -7.0780 O.3     1  UNL1       -0.4371
      4 O          21.0349   74.4834   -8.9024 O.3     1  UNL1       -0.3112
      5 C          21.3998   73.1214   -9.1312 C.3     1  UNL1        0.1811
      6 C          18.6468   71.2176   -7.8184 C.3     1  UNL1        0.2383
      7 C          18.0788   72.6477   -7.9985 C.3     1  UNL1        0.1895
      8 O          16.6822   72.6096   -8.2938 O.3     1  UNL1       -0.3779
      9 C          18.8877   73.1684   -9.2149 C.3     1  UNL1        0.1713
     10 C          20.1368   72.2667   -9.2477 C.3     1  UNL1        0.1764
     11 O          20.0485   71.3696   -8.1276 O.3     1  UNL1       -0.3308
     12 O          18.1289   73.0270  -10.4179 O.3     1  UNL1       -0.3794
     13 H          16.3917   73.5268   -8.3931 H       1  UNL1        0.2106
     14 H          17.3339   73.5663  -10.3116 H       1  UNL1        0.2105
     15 N          18.4691   70.7579   -6.4405 N.ar    1  UNL1       -0.2551
     16 C          17.3202   70.1597   -6.0806 C.ar    1  UNL1        0.3323
     17 N          17.1308   69.7233   -4.8212 N.ar    1  UNL1       -0.2743
     18 C          18.0941   69.8892   -3.8926 C.ar    1  UNL1        0.2626
     19 C          19.3062   70.5227   -4.2564 C.ar    1  UNL1        0.0795
     20 C          19.4719   70.9459   -5.5279 C.ar    1  UNL1        0.0869
     21 O          16.4420   70.0028   -6.9069 O.2     1  UNL1       -0.2464
     22 O          17.9221   69.4994   -2.7525 O.2     1  UNL1       -0.2670
     23 H          16.2976   69.2897   -4.5803 H       1  UNL1        0.1734
     24 O          23.2999   75.8096   -9.0446 O.3     1  UNL1       -0.2703
     25 P          24.4179   76.5124   -8.1252 P.3     1  UNL1        0.2208
     26 O          23.9680   76.5134   -6.7158 O.2     1  UNL1       -0.5170
     27 O          24.6426   78.0289   -8.6171 O.3     1  UNL1       -0.4371
     28 O          25.8021   75.7000   -8.2460 O.3     1  UNL1       -0.2865
     29 C          26.8437   76.6709   -8.3625 C.3     1  UNL1        0.2611
     30 C          27.9039   76.1594   -9.3395 C.3     1  UNL1        0.1582
     31 C          28.4606   74.8278   -8.8231 C.3     1  UNL1        0.1625
     32 C          28.9426   75.0241   -7.3818 C.3     1  UNL1        0.1686
     33 C          27.8029   75.6184   -6.5517 C.3     1  UNL1        0.1760
     34 O          29.5538   74.4149   -9.6451 O.3     1  UNL1       -0.3801
     35 O          29.3296   73.7635   -6.8315 O.3     1  UNL1       -0.3794
     36 O          27.4324   76.8903   -7.0824 O.3     1  UNL1       -0.3263
     37 H          29.8723   73.5755   -9.2855 H       1  UNL1        0.2105
     38 H          29.6247   73.9326   -5.9255 H       1  UNL1        0.2105
     39 C          27.8518   76.5293  -11.7467 C.2     1  UNL1        0.2231
     40 C          27.2288   76.3242  -13.1039 C.3     1  UNL1        0.0946
     41 N          27.2993   75.9599  -10.6582 N.am    1  UNL1       -0.2994
     42 O          28.8504   77.2078  -11.6343 O.2     1  UNL1       -0.2751
     43 H          26.5000   75.4172  -10.7478 H       1  UNL1        0.1496
     44 C          28.2638   75.7882   -5.1026 C.3     1  UNL1        0.1693
     45 O          28.2093   74.5264   -4.4341 O.3     1  UNL1       -0.3794
     46 H          28.5065   74.6774   -3.5266 H       1  UNL1        0.2105
@<TRIPOS>BOND
     1    29    30    1
     2    29    28    1
     3    29    36    1
     4    30    31    1
     5    30    41    1
     6    31    32    1
     7    31    34    1
     8    32    33    1
     9    32    35    1
    10    33    44    1
    11    33    36    1
    12    44    45    1
    13    39    40    1
    14    39    41   am
    15    39    42    2
    16    41    43    1
    17    28    25    1
    18    34    37    1
    19    35    38    1
    20    45    46    1
    21    15    16   ar
    22    15    20   ar
    23    15     6    1
    24    16    17   ar
    25    16    21    2
    26    17    18   ar
    27    17    23    1
    28    18    19   ar
    29    18    22    2
    30    19    20   ar
    31     6     7    1
    32     6    11    1
    33     7     8    1
    34     7     9    1
    35     8    13    1
    36     9    10    1
    37     9    12    1
    38    10    11    1
    39    10     5    1
    40    12    14    1
    41     5     4    1
    42     4     1    1
    43     1     2    2
    44     1     3    1
    45     1    24    1
    46    24    25    1
    47    25    26    2
    48    25    27    1
@<TRIPOS>MOLECULE
UD1
 46 48 0 0 0
SMALL
GASTEIGER

@<TRIPOS>ATOM
      1 P          19.5257   69.7888   -2.8672 P.3     1  UNL1        0.2189
      2 O          18.3639   69.0375   -2.3431 O.2     1  UNL1       -0.5170
      3 O          20.8520   68.8851   -2.7380 O.3     1  UNL1       -0.4371
      4 O          19.7156   71.1434   -2.0176 O.3     1  UNL1       -0.3112
      5 C          21.0835   71.5307   -2.1565 C.3     1  UNL1        0.1811
      6 C          21.7837   73.9088    0.4476 C.3     1  UNL1        0.2383
      7 C          23.1585   73.6431   -0.2153 C.3     1  UNL1        0.1895
      8 O          23.9943   74.7985   -0.1397 O.3     1  UNL1       -0.3779
      9 C          22.7595   73.3438   -1.6838 C.3     1  UNL1        0.1713
     10 C          21.2753   72.9398   -1.5935 C.3     1  UNL1        0.1764
     11 O          20.9067   72.9655   -0.2040 O.3     1  UNL1       -0.3308
     12 O          22.9187   74.5108   -2.4933 O.3     1  UNL1       -0.3794
     13 H          24.8306   74.5678   -0.5674 H       1  UNL1        0.2106
     14 H          23.8553   74.7473   -2.4613 H       1  UNL1        0.2105
     15 N          21.8423   73.6501    1.8867 N.ar    1  UNL1       -0.2551
     16 C          21.6507   72.4018    2.3476 C.ar    1  UNL1        0.3323
     17 N          21.7029   72.1340    3.6659 N.ar    1  UNL1       -0.2743
     18 C          21.9406   73.1227    4.5512 C.ar    1  UNL1        0.2626
     19 C          22.1381   74.4426    4.0801 C.ar    1  UNL1        0.0795
     20 C          22.0858   74.6822    2.7523 C.ar    1  UNL1        0.0869
     21 O          21.4354   71.4994    1.5615 O.2     1  UNL1       -0.2464
     22 O          21.9832   72.8826    5.7436 O.2     1  UNL1       -0.2670
     23 H          21.5671   71.2269    3.9803 H       1  UNL1        0.1734
     24 O          19.2740   70.1562   -4.4134 O.3     1  UNL1       -0.2703
     25 P          17.7634   70.7001   -4.5220 P.3     1  UNL1        0.2208
     26 O          17.3804   71.3498   -3.2493 O.2     1  UNL1       -0.5170
     27 O          16.7688   69.4685   -4.8156 O.3     1  UNL1       -0.4371
     28 O          17.6612   71.7682   -5.7217 O.3     1  UNL1       -0.2865
     29 C          16.3589   71.6276   -6.2920 C.3     1  UNL1        0.2611
     30 C          16.4440   71.8419   -7.8043 C.3     1  UNL1        0.1582
     31 C          17.0080   73.2400   -8.0814 C.3     1  UNL1        0.1625
     32 C          16.1622   74.2688   -7.3236 C.3     1  UNL1        0.1686
     33 C          16.1009   73.8729   -5.8468 C.3     1  UNL1        0.1760
     34 O          16.9529   73.5093   -9.4835 O.3     1  UNL1       -0.3801
     35 O          16.7569   75.5619   -7.4489 O.3     1  UNL1       -0.3794
     36 O          15.4824   72.5936   -5.7159 O.3     1  UNL1       -0.3263
     37 H          17.3167   74.3961   -9.6122 H       1  UNL1        0.2105
     38 H          16.1943   76.1774   -6.9578 H       1  UNL1        0.2105
     39 C          18.6344   71.0971   -8.5668 C.2     1  UNL1        0.2231
     40 C          19.5411   70.0570   -9.1738 C.3     1  UNL1        0.0946
     41 N          17.3253   70.8317   -8.3934 N.am    1  UNL1       -0.2994
     42 O          19.0833   72.1734   -8.2349 O.2     1  UNL1       -0.2751
     43 H          16.9658   69.9705   -8.6592 H       1  UNL1        0.1496
     44 C          15.2852   74.9121   -5.0749 C.3     1  UNL1        0.1693
     45 O          14.2565   75.4334   -5.9188 O.3     1  UNL1       -0.3794
     46 H          13.7676   76.0829   -5.3956 H       1  UNL1        0.2105
@<TRIPOS>BOND
     1    29    30    1
     2    29    28    1
     3    29    36    1
     4    30    31    1
     5    30    41    1
     6    31    32    1
     7    31    34    1
     8    32    33    1
     9    32    35    1
    10    33    44    1
    11    33    36    1
    12    44    45    1
    13    39    40    1
    14    39    41   am
    15    39    42    2
    16    41    43    1
    17    28    25    1
    18    34    37    1
    19    35    38    1
    20    45    46    1
    21    15    16   ar
    22    15    20   ar
    23    15     6    1
    24    16    17   ar
    25    16    21    2
    26    17    18   ar
    27    17    23    1
    28    18    19   ar
    29    18    22    2
    30    19    20   ar
    31     6     7    1
    32     6    11    1
    33     7     8    1
    34     7     9    1
    35     8    13    1
    36     9    10    1
    37     9    12    1
    38    10    11    1
    39    10     5    1
    40    12    14    1
    41     5     4    1
    42     4     1    1
    43     1     2    2
    44     1     3    1
    45     1    24    1
    46    24    25    1
    47    25    26    2
    48    25    27    1
@<TRIPOS>MOLECULE
UD1
 46 48 0 0 0
SMALL
GASTEIGER

@<TRIPOS>ATOM
      1 P          17.9006   74.6949   -2.1255 P.3     1  UNL1        0.2189
      2 O          17.5892   74.3955   -0.7106 O.2     1  UNL1       -0.5170
      3 O          16.7198   75.5887   -2.7575 O.3     1  UNL1       -0.4371
      4 O          18.0291   73.3173   -2.9492 O.3     1  UNL1       -0.3112
      5 C          17.0469   72.4254   -2.4199 C.3     1  UNL1        0.1811
      6 C          17.9073   70.2399   -5.1421 C.3     1  UNL1        0.2383
      7 C          19.1674   70.2520   -4.2409 C.3     1  UNL1        0.1895
      8 O          19.8632   69.0074   -4.3184 O.3     1  UNL1       -0.3779
      9 C          18.5569   70.4577   -2.8302 C.3     1  UNL1        0.1713
     10 C          17.1682   71.0650   -3.1082 C.3     1  UNL1        0.1764
     11 O          17.0464   71.2248   -4.5319 O.3     1  UNL1       -0.3308
     12 O          18.4358   69.2065   -2.1501 O.3     1  UNL1       -0.3794
     13 H          20.6335   69.0804   -3.7380 H       1  UNL1        0.2106
     14 H          19.3297   68.8502   -2.0596 H       1  UNL1        0.2105
     15 N          18.2449   70.6275   -6.5122 N.ar    1  UNL1       -0.2551
     16 C          17.3206   70.5187   -7.4824 C.ar    1  UNL1        0.3323
     17 N          17.6021   70.8715   -8.7507 N.ar    1  UNL1       -0.2743
     18 C          18.8273   71.3341   -9.0713 C.ar    1  UNL1        0.2626
     19 C          19.8117   71.4480   -8.0609 C.ar    1  UNL1        0.0795
     20 C          19.5009   71.0921   -6.7960 C.ar    1  UNL1        0.0869
     21 O          16.2110   70.1033   -7.2089 O.2     1  UNL1       -0.2464
     22 O          19.0844   71.6488  -10.2185 O.2     1  UNL1       -0.2670
     23 H          16.9218   70.7910   -9.4369 H       1  UNL1        0.1734
     24 O          19.2900   75.5020   -2.2101 O.3     1  UNL1       -0.2703
     25 P          20.1382   75.1058   -0.9014 P.3     1  UNL1        0.2208
     26 O          19.3404   75.3966    0.3101 O.2     1  UNL1       -0.5170
     27 O          21.5006   75.9629   -0.8643 O.3     1  UNL1       -0.4371
     28 O          20.4941   73.5368   -0.9457 O.3     1  UNL1       -0.2865
     29 C          21.9180   73.4362   -1.0040 C.3     1  UNL1        0.2611
     30 C          22.3070   72.3572   -2.0162 C.3     1  UNL1        0.1582
     31 C          21.6873   71.0220   -1.5886 C.3     1  UNL1        0.1625
     32 C          22.0949   70.7342   -0.1397 C.3     1  UNL1        0.1686
     33 C          21.7190   71.9346    0.7315 C.3     1  UNL1        0.1760
     34 O          22.1641   69.9784   -2.4399 O.3     1  UNL1       -0.3801
     35 O          21.4104   69.5701    0.3271 O.3     1  UNL1       -0.3794
     36 O          22.4221   73.0934    0.2851 O.3     1  UNL1       -0.3263
     37 H          21.7499   69.1589   -2.1362 H       1  UNL1        0.2105
     38 H          21.6947   69.4259    1.2408 H       1  UNL1        0.2105
     39 C          22.6716   72.9161   -4.3591 C.2     1  UNL1        0.2231
     40 C          22.1579   73.2973   -5.7240 C.3     1  UNL1        0.0946
     41 N          21.8084   72.7271   -3.3425 N.am    1  UNL1       -0.2994
     42 O          23.8624   72.7801   -4.1756 O.2     1  UNL1       -0.2751
     43 H          20.8554   72.8360   -3.4889 H       1  UNL1        0.1496
     44 C          22.0925   71.6440    2.1866 C.3     1  UNL1        0.1693
     45 O          21.2580   72.4125    3.0556 O.3     1  UNL1       -0.3794
     46 H          21.5256   72.2006    3.9601 H       1  UNL1        0.2105
@<TRIPOS>BOND
     1    29    30    1
     2    29    28    1
     3    29    36    1
     4    30    31    1
     5    30    41    1
     6    31    32    1
     7    31    34    1
     8    32    33    1
     9    32    35    1
    10    33    44    1
    11    33    36    1
    12    44    45    1
    13    39    40    1
    14    39    41   am
    15    39    42    2
    16    41    43    1
    17    28    25    1
    18    34    37    1
    19    35    38    1
    20    45    46    1
    21    15    16   ar
    22    15    20   ar
    23    15     6    1
    24    16    17   ar
    25    16    21    2
    26    17    18   ar
    27    17    23    1
    28    18    19   ar
    29    18    22    2
    30    19    20   ar
    31     6     7    1
    32     6    11    1
    33     7     8    1
    34     7     9    1
    35     8    13    1
    36     9    10    1
    37     9    12    1
    38    10    11    1
    39    10     5    1
    40    12    14    1
    41     5     4    1
    42     4     1    1
    43     1     2    2
    44     1     3    1
    45     1    24    1
    46    24    25    1
    47    25    26    2
    48    25    27    1
@<TRIPOS>MOLECULE
UD1
 46 48 0 0 0
SMALL
GASTEIGER

@<TRIPOS>ATOM
      1 P          19.3559   70.7761   -2.8904 P.3     1  UNL1        0.2189
      2 O          18.3691   71.8681   -2.7404 O.2     1  UNL1       -0.5170
      3 O          18.6830   69.5504   -3.6888 O.3     1  UNL1       -0.4371
      4 O          19.8250   70.2738   -1.4343 O.3     1  UNL1       -0.3112
      5 C          21.1633   70.7371   -1.2479 C.3     1  UNL1        0.1811
      6 C          21.5920   73.5297    0.9758 C.3     1  UNL1        0.2383
      7 C          22.9532   73.4011    0.2473 C.3     1  UNL1        0.1895
      8 O          23.5833   74.6755    0.1127 O.3     1  UNL1       -0.3779
      9 C          22.5303   72.8440   -1.1369 C.3     1  UNL1        0.1713
     10 C          21.1436   72.2222   -0.8824 C.3     1  UNL1        0.1764
     11 O          20.8534   72.3774    0.5172 O.3     1  UNL1       -0.3308
     12 O          22.4438   73.9000   -2.0961 O.3     1  UNL1       -0.3794
     13 H          24.4217   74.5265   -0.3460 H       1  UNL1        0.2106
     14 H          23.3269   74.2864   -2.1664 H       1  UNL1        0.2105
     15 N          21.7732   73.4826    2.4272 N.ar    1  UNL1       -0.2551
     16 C          21.8951   72.2949    3.0452 C.ar    1  UNL1        0.3323
     17 N          22.0666   72.2216    4.3784 N.ar    1  UNL1       -0.2743
     18 C          22.1099   73.3463    5.1207 C.ar    1  UNL1        0.2626
     19 C          21.9769   74.6031    4.4837 C.ar    1  UNL1        0.0795
     20 C          21.8112   74.6479    3.1444 C.ar    1  UNL1        0.0869
     21 O          21.8581   71.2716    2.3893 O.2     1  UNL1       -0.2464
     22 O          22.2602   73.2811    6.3268 O.2     1  UNL1       -0.2670
     23 H          22.1576   71.3566    4.8070 H       1  UNL1        0.1734
     24 O          20.6322   71.3148   -3.7089 O.3     1  UNL1       -0.2703
     25 P          20.1602   72.6434   -4.4843 P.3     1  UNL1        0.2208
     26 O          21.3007   73.2036   -5.2422 O.2     1  UNL1       -0.5170
     27 O          19.6392   73.7315   -3.4180 O.3     1  UNL1       -0.4371
     28 O          18.9678   72.2776   -5.5016 O.3     1  UNL1       -0.2865
     29 C          18.9557   73.2919   -6.5078 C.3     1  UNL1        0.2611
     30 C          17.5244   73.4864   -7.0115 C.3     1  UNL1        0.1582
     31 C          17.0067   72.1584   -7.5755 C.3     1  UNL1        0.1625
     32 C          18.0028   71.6490   -8.6225 C.3     1  UNL1        0.1686
     33 C          19.3977   71.5902   -7.9962 C.3     1  UNL1        0.1760
     34 O          15.7299   72.3618   -8.1836 O.3     1  UNL1       -0.3801
     35 O          17.6160   70.3432   -9.0547 O.3     1  UNL1       -0.3794
     36 O          19.7985   72.8976   -7.5883 O.3     1  UNL1       -0.3263
     37 H          15.4424   71.5033   -8.5236 H       1  UNL1        0.2105
     38 H          18.2688   70.0609   -9.7109 H       1  UNL1        0.2105
     39 C          15.9784   73.0036   -5.1919 C.2     1  UNL1        0.2231
     40 C          15.0976   73.4458   -4.0513 C.3     1  UNL1        0.0946
     41 N          16.6690   73.9154   -5.9031 N.am    1  UNL1       -0.2994
     42 O          16.0650   71.8266   -5.4700 O.2     1  UNL1       -0.2751
     43 H          16.5997   74.8574   -5.6809 H       1  UNL1        0.1496
     44 C          20.3947   71.0516   -9.0243 C.3     1  UNL1        0.1693
     45 O          20.4093   69.6236   -8.9716 O.3     1  UNL1       -0.3794
     46 H          21.0487   69.3257   -9.6327 H       1  UNL1        0.2105
@<TRIPOS>BOND
     1    29    30    1
     2    29    28    1
     3    29    36    1
     4    30    31    1
     5    30    41    1
     6    31    32    1
     7    31    34    1
     8    32    33    1
     9    32    35    1
    10    33    44    1
    11    33    36    1
    12    44    45    1
    13    39    40    1
    14    39    41   am
    15    39    42    2
    16    41    43    1
    17    28    25    1
    18    34    37    1
    19    35    38    1
    20    45    46    1
    21    15    16   ar
    22    15    20   ar
    23    15     6    1
    24    16    17   ar
    25    16    21    2
    26    17    18   ar
    27    17    23    1
    28    18    19   ar
    29    18    22    2
    30    19    20   ar
    31     6     7    1
    32     6    11    1
    33     7     8    1
    34     7     9    1
    35     8    13    1
    36     9    10    1
    37     9    12    1
    38    10    11    1
    39    10     5    1
    40    12    14    1
    41     5     4    1
    42     4     1    1
    43     1     2    2
    44     1     3    1
    45     1    24    1
    46    24    25    1
    47    25    26    2
    48    25    27    1
@<TRIPOS>MOLECULE
UD1
 46 48 0 0 0
SMALL
GASTEIGER

@<TRIPOS>ATOM
      1 P          22.4419   75.5849   -5.3242 P.3     1  UNL1        0.2189
      2 O          22.1369   76.8853   -4.6880 O.2     1  UNL1       -0.5170
      3 O          24.0165   75.2770   -5.1883 O.3     1  UNL1       -0.4371
      4 O          22.0399   75.6430   -6.8823 O.3     1  UNL1       -0.3112
      5 C          21.2569   76.8238   -7.0641 C.3     1  UNL1        0.1811
      6 C          18.7441   74.5108   -8.1879 C.3     1  UNL1        0.2383
      7 C          18.4920   74.6484   -6.6655 C.3     1  UNL1        0.1895
      8 O          17.1078   74.4772   -6.3591 O.3     1  UNL1       -0.3779
      9 C          18.9434   76.1065   -6.3912 C.3     1  UNL1        0.1713
     10 C          19.8678   76.4417   -7.5775 C.3     1  UNL1        0.1764
     11 O          19.9567   75.2650   -8.3988 O.3     1  UNL1       -0.3308
     12 O          17.8148   76.9830   -6.3647 O.3     1  UNL1       -0.3794
     13 H          17.0190   74.5737   -5.4009 H       1  UNL1        0.2106
     14 H          17.2471   76.6856   -5.6413 H       1  UNL1        0.2105
     15 N          18.9377   73.1082   -8.5577 N.ar    1  UNL1       -0.2551
     16 C          18.5370   72.6764   -9.7662 C.ar    1  UNL1        0.3323
     17 N          18.7061   71.3927  -10.1346 N.ar    1  UNL1       -0.2743
     18 C          19.2756   70.5119   -9.2873 C.ar    1  UNL1        0.2626
     19 C          19.6966   70.9518   -8.0097 C.ar    1  UNL1        0.0795
     20 C          19.5198   72.2461   -7.6679 C.ar    1  UNL1        0.0869
     21 O          18.0218   73.4587  -10.5414 O.2     1  UNL1       -0.2464
     22 O          19.4245   69.3500   -9.6175 O.2     1  UNL1       -0.2670
     23 H          18.4154   71.0995  -11.0119 H       1  UNL1        0.1734
     24 O          21.6019   74.4213   -4.5965 O.3     1  UNL1       -0.2703
     25 P          22.2867   73.0252   -5.0105 P.3     1  UNL1        0.2208
     26 O          23.5404   72.8451   -4.2460 O.2     1  UNL1       -0.5170
     27 O          22.6166   73.0349   -6.5863 O.3     1  UNL1       -0.4371
     28 O          21.2793   71.8137   -4.6821 O.3     1  UNL1       -0.2865
     29 C          20.2513   72.3450   -3.8440 C.3     1  UNL1        0.2611
     30 C          20.4804   71.8775   -2.4057 C.3     1  UNL1        0.1582
     31 C          20.4703   70.3451   -2.3691 C.3     1  UNL1        0.1625
     32 C          19.1741   69.8479   -3.0177 C.3     1  UNL1        0.1686
     33 C          19.0451   70.4663   -4.4114 C.3     1  UNL1        0.1760
     34 O          20.5334   69.8980   -1.0135 O.3     1  UNL1       -0.3801
     35 O          19.2100   68.4237   -3.1267 O.3     1  UNL1       -0.3794
     36 O          18.9814   71.8878   -4.3040 O.3     1  UNL1       -0.3263
     37 H          20.5251   68.9313   -1.0375 H       1  UNL1        0.2105
     38 H          18.3775   68.1537   -3.5398 H       1  UNL1        0.2105
     39 C          21.8859   72.8870   -0.6911 C.2     1  UNL1        0.2231
     40 C          23.2182   73.3954   -0.2025 C.3     1  UNL1        0.0946
     41 N          21.7745   72.3710   -1.9303 N.am    1  UNL1       -0.2994
     42 O          20.9136   72.9431    0.0312 O.2     1  UNL1       -0.2751
     43 H          22.5524   72.3262   -2.5086 H       1  UNL1        0.1496
     44 C          17.7696   69.9504   -5.0808 C.3     1  UNL1        0.1693
     45 O          16.8147   69.5965   -4.0783 O.3     1  UNL1       -0.3794
     46 H          16.0284   69.2770   -4.5412 H       1  UNL1        0.2105
@<TRIPOS>BOND
     1    29    30    1
     2    29    28    1
     3    29    36    1
     4    30    31    1
     5    30    41    1
     6    31    32    1
     7    31    34    1
     8    32    33    1
     9    32    35    1
    10    33    44    1
    11    33    36    1
    12    44    45    1
    13    39    40    1
    14    39    41   am
    15    39    42    2
    16    41    43    1
    17    28    25    1
    18    34    37    1
    19    35    38    1
    20    45    46    1
    21    15    16   ar
    22    15    20   ar
    23    15     6    1
    24    16    17   ar
    25    16    21    2
    26    17    18   ar
    27    17    23    1
    28    18    19   ar
    29    18    22    2
    30    19    20   ar
    31     6     7    1
    32     6    11    1
    33     7     8    1
    34     7     9    1
    35     8    13    1
    36     9    10    1
    37     9    12    1
    38    10    11    1
    39    10     5    1
    40    12    14    1
    41     5     4    1
    42     4     1    1
    43     1     2    2
    44     1     3    1
    45     1    24    1
    46    24    25    1
    47    25    26    2
    48    25    27    1
@<TRIPOS>MOLECULE
UD1
 46 48 0 0 0
SMALL
GASTEIGER

@<TRIPOS>ATOM
      1 P          19.2924   70.7655   -3.3276 P.3     1  UNL1        0.2189
      2 O          20.0293   71.8247   -4.0513 O.2     1  UNL1       -0.5170
      3 O          18.0811   71.4258   -2.4974 O.3     1  UNL1       -0.4371
      4 O          20.2917   70.0154   -2.3119 O.3     1  UNL1       -0.3112
      5 C          21.6204   70.3117   -2.7442 C.3     1  UNL1        0.1811
      6 C          22.4437   72.4394    0.0347 C.3     1  UNL1        0.2383
      7 C          21.5701   71.3177    0.6501 C.3     1  UNL1        0.1895
      8 O          21.9447   71.0629    2.0044 O.3     1  UNL1       -0.3779
      9 C          21.9107   70.1057   -0.2556 C.3     1  UNL1        0.1713
     10 C          22.4637   70.7449   -1.5440 C.3     1  UNL1        0.1764
     11 O          22.3877   72.1716   -1.3826 O.3     1  UNL1       -0.3308
     12 O          22.8985   69.2796    0.3646 O.3     1  UNL1       -0.3794
     13 H          21.3657   70.3588    2.3275 H       1  UNL1        0.2106
     14 H          22.5151   68.9591    1.1919 H       1  UNL1        0.2105
     15 N          21.8828   73.7575    0.3335 N.ar    1  UNL1       -0.2551
     16 C          22.7056   74.8007    0.5393 C.ar    1  UNL1        0.3323
     17 N          22.2174   76.0252    0.8120 N.ar    1  UNL1       -0.2743
     18 C          20.8862   76.2236    0.8926 C.ar    1  UNL1        0.2626
     19 C          20.0088   75.1329    0.6841 C.ar    1  UNL1        0.0795
     20 C          20.5252   73.9164    0.4068 C.ar    1  UNL1        0.0869
     21 O          23.9086   74.6376    0.4698 O.2     1  UNL1       -0.2464
     22 O          20.4439   77.3293    1.1439 O.2     1  UNL1       -0.2670
     23 H          22.8254   76.7673    0.9529 H       1  UNL1        0.1734
     24 O          18.7043   69.7034   -4.3836 O.3     1  UNL1       -0.2703
     25 P          17.3183   70.3107   -4.9308 P.3     1  UNL1        0.2208
     26 O          16.3989   70.5426   -3.7950 O.2     1  UNL1       -0.5170
     27 O          16.6460   69.2720   -5.9610 O.3     1  UNL1       -0.4371
     28 O          17.6019   71.7042   -5.6846 O.3     1  UNL1       -0.2865
     29 C          16.4002   72.0551   -6.3730 C.3     1  UNL1        0.2611
     30 C          16.7340   72.4094   -7.8232 C.3     1  UNL1        0.1582
     31 C          17.7269   73.5772   -7.8381 C.3     1  UNL1        0.1625
     32 C          17.1471   74.7241   -7.0035 C.3     1  UNL1        0.1686
     33 C          16.7849   74.1958   -5.6139 C.3     1  UNL1        0.1760
     34 O          17.9313   74.0148   -9.1827 O.3     1  UNL1       -0.3801
     35 O          18.1181   75.7653   -6.8823 O.3     1  UNL1       -0.3794
     36 O          15.7949   73.1744   -5.7294 O.3     1  UNL1       -0.3263
     37 H          18.5609   74.7479   -9.1453 H       1  UNL1        0.2105
     38 H          17.7131   76.4650   -6.3504 H       1  UNL1        0.2105
     39 C          18.6717   71.1288   -8.5578 C.2     1  UNL1        0.2231
     40 C          19.2868   69.9339   -9.2406 C.3     1  UNL1        0.0946
     41 N          17.3320   71.2486   -8.4860 N.am    1  UNL1       -0.2994
     42 O          19.3830   71.9831   -8.0735 O.2     1  UNL1       -0.2751
     43 H          16.7626   70.5652   -8.8736 H       1  UNL1        0.1496
     44 C          16.2349   75.3412   -4.7615 C.3     1  UNL1        0.1693
     45 O          15.5268   76.2595   -5.5967 O.3     1  UNL1       -0.3794
     46 H          15.1979   76.9639   -5.0220 H       1  UNL1        0.2105
@<TRIPOS>BOND
     1    29    30    1
     2    29    28    1
     3    29    36    1
     4    30    31    1
     5    30    41    1
     6    31    32    1
     7    31    34    1
     8    32    33    1
     9    32    35    1
    10    33    44    1
    11    33    36    1
    12    44    45    1
    13    39    40    1
    14    39    41   am
    15    39    42    2
    16    41    43    1
    17    28    25    1
    18    34    37    1
    19    35    38    1
    20    45    46    1
    21    15    16   ar
    22    15    20   ar
    23    15     6    1
    24    16    17   ar
    25    16    21    2
    26    17    18   ar
    27    17    23    1
    28    18    19   ar
    29    18    22    2
    30    19    20   ar
    31     6     7    1
    32     6    11    1
    33     7     8    1
    34     7     9    1
    35     8    13    1
    36     9    10    1
    37     9    12    1
    38    10    11    1
    39    10     5    1
    40    12    14    1
    41     5     4    1
    42     4     1    1
    43     1     2    2
    44     1     3    1
    45     1    24    1
    46    24    25    1
    47    25    26    2
    48    25    27    1
@<TRIPOS>MOLECULE
UD1
 46 48 0 0 0
SMALL
GASTEIGER

@<TRIPOS>ATOM
      1 P          22.6815   73.2868   -4.6559 P.3     1  UNL1        0.2189
      2 O          23.8257   72.6033   -4.0138 O.2     1  UNL1       -0.5170
      3 O          22.9321   74.8773   -4.6460 O.3     1  UNL1       -0.4371
      4 O          21.3323   72.9521   -3.8432 O.3     1  UNL1       -0.3112
      5 C          21.4298   73.6220   -2.5854 C.3     1  UNL1        0.1811
      6 C          22.2232   72.2597    0.6460 C.3     1  UNL1        0.2383
      7 C          21.2970   71.2018   -0.0045 C.3     1  UNL1        0.1895
      8 O          21.6190   69.8887    0.4552 O.3     1  UNL1       -0.3779
      9 C          21.6315   71.3583   -1.5107 C.3     1  UNL1        0.1713
     10 C          22.2453   72.7679   -1.6134 C.3     1  UNL1        0.1764
     11 O          22.2062   73.3503   -0.2994 O.3     1  UNL1       -0.3308
     12 O          22.5735   70.3644   -1.9200 O.3     1  UNL1       -0.3794
     13 H          21.0091   69.2804    0.0152 H       1  UNL1        0.2106
     14 H          22.1537   69.5058   -1.7762 H       1  UNL1        0.2105
     15 N          21.6919   72.6899    1.9399 N.ar    1  UNL1       -0.2551
     16 C          22.0940   72.0720    3.0641 C.ar    1  UNL1        0.3323
     17 N          21.6249   72.4493    4.2681 N.ar    1  UNL1       -0.2743
     18 C          20.7310   73.4541    4.3647 C.ar    1  UNL1        0.2626
     19 C          20.2946   74.1093    3.1887 C.ar    1  UNL1        0.0795
     20 C          20.7853   73.7142    1.9943 C.ar    1  UNL1        0.0869
     21 O          22.8998   71.1641    2.9933 O.2     1  UNL1       -0.2464
     22 O          20.3026   73.7929    5.4524 O.2     1  UNL1       -0.2670
     23 H          21.9294   71.9956    5.0691 H       1  UNL1        0.1734
     24 O          22.5340   72.7753   -6.1742 O.3     1  UNL1       -0.2703
     25 P          20.9784   72.9125   -6.5620 P.3     1  UNL1        0.2208
     26 O          20.7463   72.3069   -7.8918 O.2     1  UNL1       -0.5170
     27 O          20.5702   74.4693   -6.6035 O.3     1  UNL1       -0.4371
     28 O          20.0810   72.1531   -5.4626 O.3     1  UNL1       -0.2865
     29 C          19.3443   71.1434   -6.1546 C.3     1  UNL1        0.2611
     30 C          17.8704   71.5479   -6.2185 C.3     1  UNL1        0.1582
     31 C          17.3371   71.7253   -4.7924 C.3     1  UNL1        0.1625
     32 C          17.6288   70.4481   -3.9976 C.3     1  UNL1        0.1686
     33 C          19.1217   70.1282   -4.0988 C.3     1  UNL1        0.1760
     34 O          15.9277   71.9562   -4.8336 O.3     1  UNL1       -0.3801
     35 O          17.2727   70.6456   -2.6280 O.3     1  UNL1       -0.3794
     36 O          19.4752   69.9033   -5.4630 O.3     1  UNL1       -0.3263
     37 H          15.6351   72.0622   -3.9179 H       1  UNL1        0.2105
     38 H          17.4729   69.8198   -2.1650 H       1  UNL1        0.2105
     39 C          16.7170   72.9875   -7.8096 C.2     1  UNL1        0.2231
     40 C          16.5833   74.2855   -8.5643 C.3     1  UNL1        0.0946
     41 N          17.7398   72.8088   -6.9515 N.am    1  UNL1       -0.2994
     42 O          15.9040   72.1033   -7.9753 O.2     1  UNL1       -0.2751
     43 H          18.3906   73.5162   -6.8189 H       1  UNL1        0.1496
     44 C          19.4294   68.8720   -3.2813 C.3     1  UNL1        0.1693
     45 O          18.2714   68.0357   -3.2382 O.3     1  UNL1       -0.3794
     46 H          18.5074   67.2578   -2.7149 H       1  UNL1        0.2105
@<TRIPOS>BOND
     1    29    30    1
     2    29    28    1
     3    29    36    1
     4    30    31    1
     5    30    41    1
     6    31    32    1
     7    31    34    1
     8    32    33    1
     9    32    35    1
    10    33    44    1
    11    33    36    1
    12    44    45    1
    13    39    40    1
    14    39    41   am
    15    39    42    2
    16    41    43    1
    17    28    25    1
    18    34    37    1
    19    35    38    1
    20    45    46    1
    21    15    16   ar
    22    15    20   ar
    23    15     6    1
    24    16    17   ar
    25    16    21    2
    26    17    18   ar
    27    17    23    1
    28    18    19   ar
    29    18    22    2
    30    19    20   ar
    31     6     7    1
    32     6    11    1
    33     7     8    1
    34     7     9    1
    35     8    13    1
    36     9    10    1
    37     9    12    1
    38    10    11    1
    39    10     5    1
    40    12    14    1
    41     5     4    1
    42     4     1    1
    43     1     2    2
    44     1     3    1
    45     1    24    1
    46    24    25    1
    47    25    26    2
    48    25    27    1
@<TRIPOS>MOLECULE
UD1
 46 48 0 0 0
SMALL
GASTEIGER

@<TRIPOS>ATOM
      1 P          21.8082   70.9177   -3.3219 P.3     1  UNL1        0.2189
      2 O          23.2833   70.8160   -3.2729 O.2     1  UNL1       -0.5170
      3 O          21.3753   71.8498   -4.5613 O.3     1  UNL1       -0.4371
      4 O          21.2698   71.5665   -1.9500 O.3     1  UNL1       -0.3112
      5 C          22.2537   72.5104   -1.5245 C.3     1  UNL1        0.1811
      6 C          22.6421   73.2472    1.9732 C.3     1  UNL1        0.2383
      7 C          21.2777   72.5194    1.8790 C.3     1  UNL1        0.1895
      8 O          21.0069   71.7845    3.0731 O.3     1  UNL1       -0.3779
      9 C          21.5012   71.5627    0.6790 C.3     1  UNL1        0.1713
     10 C          22.6780   72.1944   -0.0894 C.3     1  UNL1        0.1764
     11 O          23.0348   73.4084    0.5935 O.3     1  UNL1       -0.3308
     12 O          21.8415   70.2532    1.1398 O.3     1  UNL1       -0.3794
     13 H          20.1477   71.3576    2.9505 H       1  UNL1        0.2106
     14 H          21.0919   69.9373    1.6617 H       1  UNL1        0.2105
     15 N          22.4922   74.5500    2.6227 N.ar    1  UNL1       -0.2551
     16 C          23.0710   74.7701    3.8159 C.ar    1  UNL1        0.3323
     17 N          22.9530   75.9599    4.4345 N.ar    1  UNL1       -0.2743
     18 C          22.2395   76.9532    3.8668 C.ar    1  UNL1        0.2626
     19 C          21.6200   76.7330    2.6136 C.ar    1  UNL1        0.0795
     20 C          21.7589   75.5318    2.0126 C.ar    1  UNL1        0.0869
     21 O          23.7178   73.8842    4.3407 O.2     1  UNL1       -0.2464
     22 O          22.1282   78.0277    4.4274 O.2     1  UNL1       -0.2670
     23 H          23.3811   76.1028    5.2927 H       1  UNL1        0.1734
     24 O          21.1748   69.4501   -3.5060 O.3     1  UNL1       -0.2703
     25 P          19.6414   69.5421   -3.0269 P.3     1  UNL1        0.2208
     26 O          19.5928   69.7002   -1.5567 O.2     1  UNL1       -0.5170
     27 O          18.8655   68.1954   -3.4470 O.3     1  UNL1       -0.4371
     28 O          18.9343   70.8075   -3.7263 O.3     1  UNL1       -0.2865
     29 C          17.8370   70.3005   -4.4879 C.3     1  UNL1        0.2611
     30 C          17.7544   71.0529   -5.8172 C.3     1  UNL1        0.1582
     31 C          17.5727   72.5488   -5.5360 C.3     1  UNL1        0.1625
     32 C          16.3667   72.7301   -4.6081 C.3     1  UNL1        0.1686
     33 C          16.5556   71.8532   -3.3684 C.3     1  UNL1        0.1760
     34 O          17.3447   73.2426   -6.7640 O.3     1  UNL1       -0.3801
     35 O          16.2676   74.1003   -4.2155 O.3     1  UNL1       -0.3794
     36 O          16.6275   70.4813   -3.7546 O.3     1  UNL1       -0.3263
     37 H          17.2365   74.1774   -6.5409 H       1  UNL1        0.2105
     38 H          15.4978   74.1694   -3.6331 H       1  UNL1        0.2105
     39 C          18.9366   70.6467   -7.9081 C.2     1  UNL1        0.2231
     40 C          20.2075   70.4301   -8.6892 C.3     1  UNL1        0.0946
     41 N          18.9888   70.8430   -6.5766 N.am    1  UNL1       -0.2994
     42 O          17.8665   70.6437   -8.4783 O.2     1  UNL1       -0.2751
     43 H          19.8450   70.8452   -6.1200 H       1  UNL1        0.1496
     44 C          15.3716   72.0517   -2.4198 C.3     1  UNL1        0.1693
     45 O          14.1889   72.3068   -3.1802 O.3     1  UNL1       -0.3794
     46 H          13.4688   72.4259   -2.5462 H       1  UNL1        0.2105
@<TRIPOS>BOND
     1    29    30    1
     2    29    28    1
     3    29    36    1
     4    30    31    1
     5    30    41    1
     6    31    32    1
     7    31    34    1
     8    32    33    1
     9    32    35    1
    10    33    44    1
    11    33    36    1
    12    44    45    1
    13    39    40    1
    14    39    41   am
    15    39    42    2
    16    41    43    1
    17    28    25    1
    18    34    37    1
    19    35    38    1
    20    45    46    1
    21    15    16   ar
    22    15    20   ar
    23    15     6    1
    24    16    17   ar
    25    16    21    2
    26    17    18   ar
    27    17    23    1
    28    18    19   ar
    29    18    22    2
    30    19    20   ar
    31     6     7    1
    32     6    11    1
    33     7     8    1
    34     7     9    1
    35     8    13    1
    36     9    10    1
    37     9    12    1
    38    10    11    1
    39    10     5    1
    40    12    14    1
    41     5     4    1
    42     4     1    1
    43     1     2    2
    44     1     3    1
    45     1    24    1
    46    24    25    1
    47    25    26    2
    48    25    27    1
@<TRIPOS>MOLECULE
UD1
 46 48 0 0 0
SMALL
GASTEIGER

@<TRIPOS>ATOM
      1 P          22.8000   72.0479   -3.4414 P.3     1  UNL1        0.2189
      2 O          23.2990   70.7165   -3.0327 O.2     1  UNL1       -0.5170
      3 O          23.9281   72.8007   -4.3094 O.3     1  UNL1       -0.4371
      4 O          22.4626   72.9196   -2.1302 O.3     1  UNL1       -0.3112
      5 C          21.8459   72.0356   -1.1929 C.3     1  UNL1        0.1811
      6 C          22.6284   73.1414    2.1375 C.3     1  UNL1        0.2383
      7 C          21.6835   71.9309    2.3424 C.3     1  UNL1        0.1895
      8 O          21.9862   71.2462    3.5585 O.3     1  UNL1       -0.3779
      9 C          22.0154   71.0469    1.1122 C.3     1  UNL1        0.1713
     10 C          22.6511   72.0270    0.1074 C.3     1  UNL1        0.1764
     11 O          22.6255   73.3336    0.7069 O.3     1  UNL1       -0.3308
     12 O          22.9402   70.0177    1.4705 O.3     1  UNL1       -0.3794
     13 H          21.3654   70.5077    3.6262 H       1  UNL1        0.2106
     14 H          22.5074   69.4752    2.1432 H       1  UNL1        0.2105
     15 N          22.1082   74.3275    2.8187 N.ar    1  UNL1       -0.2551
     16 C          22.5233   74.6163    4.0643 C.ar    1  UNL1        0.3323
     17 N          22.0647   75.7028    4.7134 N.ar    1  UNL1       -0.2743
     18 C          21.1683   76.5189    4.1231 C.ar    1  UNL1        0.2626
     19 C          20.7182   76.2234    2.8143 C.ar    1  UNL1        0.0795
     20 C          21.1987   75.1301    2.1842 C.ar    1  UNL1        0.0869
     21 O          23.3316   73.8899    4.6100 O.2     1  UNL1       -0.2464
     22 O          20.7493   77.4989    4.7109 O.2     1  UNL1       -0.2670
     23 H          22.3786   75.8985    5.6097 H       1  UNL1        0.1734
     24 O          21.4680   71.8733   -4.3268 O.3     1  UNL1       -0.2703
     25 P          21.4779   73.0544   -5.4196 P.3     1  UNL1        0.2208
     26 O          22.6921   72.9408   -6.2574 O.2     1  UNL1       -0.5170
     27 O          21.4750   74.4795   -4.6706 O.3     1  UNL1       -0.4371
     28 O          20.1705   72.9366   -6.3509 O.3     1  UNL1       -0.2865
     29 C          20.1117   71.5863   -6.8140 C.3     1  UNL1        0.2611
     30 C          20.0925   71.5774   -8.3436 C.3     1  UNL1        0.1582
     31 C          18.8764   72.3711   -8.8342 C.3     1  UNL1        0.1625
     32 C          17.6197   71.8071   -8.1630 C.3     1  UNL1        0.1686
     33 C          17.8244   71.8016   -6.6466 C.3     1  UNL1        0.1760
     34 O          18.7631   72.2453  -10.2529 O.3     1  UNL1       -0.3801
     35 O          16.4946   72.6241   -8.4919 O.3     1  UNL1       -0.3794
     36 O          18.9307   70.9643   -6.3125 O.3     1  UNL1       -0.3263
     37 H          17.9876   72.7588  -10.5179 H       1  UNL1        0.2105
     38 H          15.7271   72.2347   -8.0493 H       1  UNL1        0.2105
     39 C          21.3563   73.5184   -9.0984 C.2     1  UNL1        0.2231
     40 C          22.6190   74.1531   -9.6228 C.3     1  UNL1        0.0946
     41 N          21.3191   72.1946   -8.8525 N.am    1  UNL1       -0.2994
     42 O          20.3733   74.1994   -8.8983 O.2     1  UNL1       -0.2751
     43 H          22.1055   71.6493   -9.0128 H       1  UNL1        0.1496
     44 C          16.5619   71.2701   -5.9648 C.3     1  UNL1        0.1693
     45 O          16.7701   69.9134   -5.5670 O.3     1  UNL1       -0.3794
     46 H          15.9531   69.6176   -5.1431 H       1  UNL1        0.2105
@<TRIPOS>BOND
     1    29    30    1
     2    29    28    1
     3    29    36    1
     4    30    31    1
     5    30    41    1
     6    31    32    1
     7    31    34    1
     8    32    33    1
     9    32    35    1
    10    33    44    1
    11    33    36    1
    12    44    45    1
    13    39    40    1
    14    39    41   am
    15    39    42    2
    16    41    43    1
    17    28    25    1
    18    34    37    1
    19    35    38    1
    20    45    46    1
    21    15    16   ar
    22    15    20   ar
    23    15     6    1
    24    16    17   ar
    25    16    21    2
    26    17    18   ar
    27    17    23    1
    28    18    19   ar
    29    18    22    2
    30    19    20   ar
    31     6     7    1
    32     6    11    1
    33     7     8    1
    34     7     9    1
    35     8    13    1
    36     9    10    1
    37     9    12    1
    38    10    11    1
    39    10     5    1
    40    12    14    1
    41     5     4    1
    42     4     1    1
    43     1     2    2
    44     1     3    1
    45     1    24    1
    46    24    25    1
    47    25    26    2
    48    25    27    1
@<TRIPOS>MOLECULE
UD1
 46 48 0 0 0
SMALL
GASTEIGER

@<TRIPOS>ATOM
      1 P          23.1056   73.8480   -4.3969 P.3     1  UNL1        0.2189
      2 O          24.3943   73.2013   -4.0652 O.2     1  UNL1       -0.5170
      3 O          23.3731   75.1245   -5.3411 O.3     1  UNL1       -0.4371
      4 O          22.3816   74.3272   -3.0408 O.3     1  UNL1       -0.3112
      5 C          22.2646   73.1750   -2.2047 C.3     1  UNL1        0.1811
      6 C          20.4647   73.5131    0.8894 C.3     1  UNL1        0.2383
      7 C          20.6324   74.9656    0.3772 C.3     1  UNL1        0.1895
      8 O          19.5377   75.7834    0.7918 O.3     1  UNL1       -0.3779
      9 C          20.6262   74.7710   -1.1614 C.3     1  UNL1        0.1713
     10 C          20.9994   73.2883   -1.3528 C.3     1  UNL1        0.1764
     11 O          21.2373   72.7333   -0.0479 O.3     1  UNL1       -0.3308
     12 O          19.3275   75.0395   -1.6945 O.3     1  UNL1       -0.3794
     13 H          19.7025   76.6702    0.4427 H       1  UNL1        0.2106
     14 H          19.1276   75.9630   -1.4910 H       1  UNL1        0.2105
     15 N          21.0028   73.3744    2.2432 N.ar    1  UNL1       -0.2551
     16 C          21.4542   72.1792    2.6615 C.ar    1  UNL1        0.3323
     17 N          21.9580   72.0233    3.9001 N.ar    1  UNL1       -0.2743
     18 C          22.0095   73.0694    4.7493 C.ar    1  UNL1        0.2626
     19 C          21.5322   74.3319    4.3239 C.ar    1  UNL1        0.0795
     20 C          21.0368   74.4615    3.0744 C.ar    1  UNL1        0.0869
     21 O          21.4145   71.2263    1.9072 O.2     1  UNL1       -0.2464
     22 O          22.4604   72.9285    5.8710 O.2     1  UNL1       -0.2670
     23 H          22.2835   71.1551    4.1836 H       1  UNL1        0.1734
     24 O          22.1608   72.7980   -5.1673 O.3     1  UNL1       -0.2703
     25 P          20.8879   73.6240   -5.7029 P.3     1  UNL1        0.2208
     26 O          21.0098   73.8252   -7.1636 O.2     1  UNL1       -0.5170
     27 O          20.8280   75.0552   -4.9679 O.3     1  UNL1       -0.4371
     28 O          19.5409   72.8023   -5.3851 O.3     1  UNL1       -0.2865
     29 C          19.8411   71.4202   -5.5872 C.3     1  UNL1        0.2611
     30 C          18.7791   70.8006   -6.4973 C.3     1  UNL1        0.1582
     31 C          17.4018   70.9655   -5.8450 C.3     1  UNL1        0.1625
     32 C          17.4598   70.3910   -4.4256 C.3     1  UNL1        0.1686
     33 C          18.6196   71.0439   -3.6707 C.3     1  UNL1        0.1760
     34 O          16.4221   70.2615   -6.6104 O.3     1  UNL1       -0.3801
     35 O          16.2320   70.6656   -3.7483 O.3     1  UNL1       -0.3794
     36 O          19.8507   70.7486   -4.3293 O.3     1  UNL1       -0.3263
     37 H          15.5733   70.3921   -6.1656 H       1  UNL1        0.2105
     38 H          16.3117   70.2883   -2.8607 H       1  UNL1        0.2105
     39 C          19.5768   71.0182   -8.7887 C.2     1  UNL1        0.2231
     40 C          19.5893   71.7157  -10.1249 C.3     1  UNL1        0.0946
     41 N          18.7912   71.4776   -7.7957 N.am    1  UNL1       -0.2994
     42 O          20.2748   70.0435   -8.6071 O.2     1  UNL1       -0.2751
     43 H          18.2327   72.2577   -7.9407 H       1  UNL1        0.1496
     44 C          18.6662   70.5006   -2.2410 C.3     1  UNL1        0.1693
     45 O          18.7532   69.0746   -2.2755 O.3     1  UNL1       -0.3794
     46 H          18.7799   68.7736   -1.3572 H       1  UNL1        0.2105
@<TRIPOS>BOND
     1    29    30    1
     2    29    28    1
     3    29    36    1
     4    30    31    1
     5    30    41    1
     6    31    32    1
     7    31    34    1
     8    32    33    1
     9    32    35    1
    10    33    44    1
    11    33    36    1
    12    44    45    1
    13    39    40    1
    14    39    41   am
    15    39    42    2
    16    41    43    1
    17    28    25    1
    18    34    37    1
    19    35    38    1
    20    45    46    1
    21    15    16   ar
    22    15    20   ar
    23    15     6    1
    24    16    17   ar
    25    16    21    2
    26    17    18   ar
    27    17    23    1
    28    18    19   ar
    29    18    22    2
    30    19    20   ar
    31     6     7    1
    32     6    11    1
    33     7     8    1
    34     7     9    1
    35     8    13    1
    36     9    10    1
    37     9    12    1
    38    10    11    1
    39    10     5    1
    40    12    14    1
    41     5     4    1
    42     4     1    1
    43     1     2    2
    44     1     3    1
    45     1    24    1
    46    24    25    1
    47    25    26    2
    48    25    27    1
