@<TRIPOS>MOLECULE
UD1
 46 48 0 0 0
SMALL
GASTEIGER

@<TRIPOS>ATOM
      1 P          21.0551   71.7064   -2.2029 P.3     1  UNL1        0.2189
      2 O          21.6282   73.0560   -2.4002 O.2     1  UNL1       -0.5170
      3 O          22.1914   70.5968   -2.4675 O.3     1  UNL1       -0.4371
      4 O          19.8390   71.4843   -3.2347 O.3     1  UNL1       -0.3112
      5 C          18.7169   71.0504   -2.4647 C.3     1  UNL1        0.1811
      6 C          17.0252   70.6129   -5.6070 C.3     1  UNL1        0.2383
      7 C          17.0643   69.1940   -4.9863 C.3     1  UNL1        0.1895
      8 O          15.9302   68.4270   -5.3923 O.3     1  UNL1       -0.3779
      9 C          17.0095   69.5013   -3.4672 C.3     1  UNL1        0.1713
     10 C          17.4827   70.9641   -3.3639 C.3     1  UNL1        0.1764
     11 O          17.8140   71.4033   -4.6923 O.3     1  UNL1       -0.3308
     12 O          15.6739   69.3650   -2.9771 O.3     1  UNL1       -0.3794
     13 H          16.0149   67.5589   -4.9743 H       1  UNL1        0.2106
     14 H          15.4150   68.4454   -3.1239 H       1  UNL1        0.2105
     15 N          17.6270   70.6133   -6.9409 N.ar    1  UNL1       -0.2551
     16 C          16.8473   70.4489   -8.0236 C.ar    1  UNL1        0.3323
     17 N          17.3731   70.4489   -9.2629 N.ar    1  UNL1       -0.2743
     18 C          18.7008   70.6057   -9.4376 C.ar    1  UNL1        0.2626
     19 C          19.5340   70.7736   -8.3061 C.ar    1  UNL1        0.0795
     20 C          18.9796   70.7750   -7.0748 C.ar    1  UNL1        0.0869
     21 O          15.6479   70.3065   -7.8823 O.2     1  UNL1       -0.2464
     22 O          19.1779   70.6010  -10.5574 O.2     1  UNL1       -0.2670
     23 H          16.7952   70.3339  -10.0329 H       1  UNL1        0.1734
     24 O          20.5109   71.5696   -0.6949 O.3     1  UNL1       -0.2703
     25 P          21.7872   71.2547    0.2331 P.3     1  UNL1        0.2208
     26 O          23.0019   71.1792   -0.6080 O.2     1  UNL1       -0.5170
     27 O          21.5694   69.8491    0.9875 O.3     1  UNL1       -0.4371
     28 O          21.9615   72.4258    1.3234 O.3     1  UNL1       -0.2865
     29 C          22.0854   71.7910    2.5973 C.3     1  UNL1        0.2611
     30 C          21.7327   72.7935    3.6976 C.3     1  UNL1        0.1582
     31 C          22.6755   73.9980    3.5992 C.3     1  UNL1        0.1625
     32 C          24.1216   73.4914    3.6180 C.3     1  UNL1        0.1686
     33 C          24.2949   72.4383    2.5215 C.3     1  UNL1        0.1760
     34 O          22.4558   74.8700    4.7095 O.3     1  UNL1       -0.3801
     35 O          25.0133   74.5822    3.3801 O.3     1  UNL1       -0.3794
     36 O          23.4252   71.3347    2.7711 O.3     1  UNL1       -0.3263
     37 H          23.0677   75.6119    4.6075 H       1  UNL1        0.2105
     38 H          25.9103   74.2195    3.3995 H       1  UNL1        0.2105
     39 C          20.0796   74.3531    2.8206 C.2     1  UNL1        0.2231
     40 C          18.6542   74.8118    2.6475 C.3     1  UNL1        0.0946
     41 N          20.3481   73.2392    3.5287 N.am    1  UNL1       -0.2994
     42 O          20.9853   74.9874    2.3229 O.2     1  UNL1       -0.2751
     43 H          19.6235   72.7316    3.9273 H       1  UNL1        0.1496
     44 C          25.7447   71.9492    2.5104 C.3     1  UNL1        0.1693
     45 O          25.8321   70.7339    1.7637 O.3     1  UNL1       -0.3794
     46 H          26.7593   70.4605    1.7818 H       1  UNL1        0.2105
@<TRIPOS>BOND
     1    29    30    1
     2    29    28    1
     3    29    36    1
     4    30    31    1
     5    30    41    1
     6    31    32    1
     7    31    34    1
     8    32    33    1
     9    32    35    1
    10    33    44    1
    11    33    36    1
    12    44    45    1
    13    39    40    1
    14    39    41   am
    15    39    42    2
    16    41    43    1
    17    28    25    1
    18    34    37    1
    19    35    38    1
    20    45    46    1
    21    15    16   ar
    22    15    20   ar
    23    15     6    1
    24    16    17   ar
    25    16    21    2
    26    17    18   ar
    27    17    23    1
    28    18    19   ar
    29    18    22    2
    30    19    20   ar
    31     6     7    1
    32     6    11    1
    33     7     8    1
    34     7     9    1
    35     8    13    1
    36     9    10    1
    37     9    12    1
    38    10    11    1
    39    10     5    1
    40    12    14    1
    41     5     4    1
    42     4     1    1
    43     1     2    2
    44     1     3    1
    45     1    24    1
    46    24    25    1
    47    25    26    2
    48    25    27    1
@<TRIPOS>MOLECULE
UD1
 46 48 0 0 0
SMALL
GASTEIGER

@<TRIPOS>ATOM
      1 P          20.9145   70.8329   -3.4740 P.3     1  UNL1        0.2189
      2 O          21.7470   71.4967   -4.5011 O.2     1  UNL1       -0.5170
      3 O          20.4122   69.4074   -4.0293 O.3     1  UNL1       -0.4371
      4 O          19.6390   71.7567   -3.1386 O.3     1  UNL1       -0.3112
      5 C          18.6476   70.9018   -2.5670 C.3     1  UNL1        0.1811
      6 C          16.9979   70.5322   -5.7401 C.3     1  UNL1        0.2383
      7 C          17.0002   69.1058   -5.1354 C.3     1  UNL1        0.1895
      8 O          15.8583   68.3654   -5.5678 O.3     1  UNL1       -0.3779
      9 C          16.9272   69.3972   -3.6139 C.3     1  UNL1        0.1713
     10 C          17.4265   70.8494   -3.4863 C.3     1  UNL1        0.1764
     11 O          17.7871   71.2970   -4.8042 O.3     1  UNL1       -0.3308
     12 O          15.5816   69.2810   -3.1462 O.3     1  UNL1       -0.3794
     13 H          15.9198   67.4912   -5.1585 H       1  UNL1        0.2106
     14 H          15.3077   68.3683   -3.3076 H       1  UNL1        0.2105
     15 N          17.6206   70.5359   -7.0644 N.ar    1  UNL1       -0.2551
     16 C          16.8498   70.4633   -8.1634 C.ar    1  UNL1        0.3323
     17 N          17.3951   70.4688   -9.3942 N.ar    1  UNL1       -0.2743
     18 C          18.7332   70.5383   -9.5441 C.ar    1  UNL1        0.2626
     19 C          19.5569   70.6092   -8.3955 C.ar    1  UNL1        0.0795
     20 C          18.9833   70.6074   -7.1731 C.ar    1  UNL1        0.0869
     21 O          15.6412   70.4001   -8.0444 O.2     1  UNL1       -0.2464
     22 O          19.2276   70.5385  -10.6563 O.2     1  UNL1       -0.2670
     23 H          16.8236   70.4206  -10.1760 H       1  UNL1        0.1734
     24 O          21.7840   70.6134   -2.1381 O.3     1  UNL1       -0.2703
     25 P          23.0507   71.6004   -2.2405 P.3     1  UNL1        0.2208
     26 O          22.6372   72.8687   -2.8803 O.2     1  UNL1       -0.5170
     27 O          24.2035   70.9055   -3.1239 O.3     1  UNL1       -0.4371
     28 O          23.6170   71.9037   -0.7647 O.3     1  UNL1       -0.2865
     29 C          22.6740   71.3603    0.1608 C.3     1  UNL1        0.2611
     30 C          21.9055   72.5023    0.8280 C.3     1  UNL1        0.1582
     31 C          22.8990   73.4230    1.5455 C.3     1  UNL1        0.1625
     32 C          23.7581   72.5759    2.4902 C.3     1  UNL1        0.1686
     33 C          24.3894   71.4299    1.6968 C.3     1  UNL1        0.1760
     34 O          22.1843   74.4069    2.2957 O.3     1  UNL1       -0.3801
     35 O          24.7865   73.3885    3.0591 O.3     1  UNL1       -0.3794
     36 O          23.3649   70.6004    1.1501 O.3     1  UNL1       -0.3263
     37 H          22.8462   74.9629    2.7292 H       1  UNL1        0.2105
     38 H          25.3028   72.8169    3.6449 H       1  UNL1        0.2105
     39 C          19.9430   73.7323    0.0731 C.2     1  UNL1        0.2231
     40 C          19.1944   74.5155   -0.9750 C.3     1  UNL1        0.0946
     41 N          21.1781   73.2636   -0.1897 N.am    1  UNL1       -0.2994
     42 O          19.4331   73.5235    1.1532 O.2     1  UNL1       -0.2751
     43 H          21.5863   73.4304   -1.0540 H       1  UNL1        0.1496
     44 C          25.2756   70.5964    2.6247 C.3     1  UNL1        0.1693
     45 O          26.6462   70.9391    2.4097 O.3     1  UNL1       -0.3794
     46 H          27.1690   70.3927    3.0119 H       1  UNL1        0.2105
@<TRIPOS>BOND
     1    29    30    1
     2    29    28    1
     3    29    36    1
     4    30    31    1
     5    30    41    1
     6    31    32    1
     7    31    34    1
     8    32    33    1
     9    32    35    1
    10    33    44    1
    11    33    36    1
    12    44    45    1
    13    39    40    1
    14    39    41   am
    15    39    42    2
    16    41    43    1
    17    28    25    1
    18    34    37    1
    19    35    38    1
    20    45    46    1
    21    15    16   ar
    22    15    20   ar
    23    15     6    1
    24    16    17   ar
    25    16    21    2
    26    17    18   ar
    27    17    23    1
    28    18    19   ar
    29    18    22    2
    30    19    20   ar
    31     6     7    1
    32     6    11    1
    33     7     8    1
    34     7     9    1
    35     8    13    1
    36     9    10    1
    37     9    12    1
    38    10    11    1
    39    10     5    1
    40    12    14    1
    41     5     4    1
    42     4     1    1
    43     1     2    2
    44     1     3    1
    45     1    24    1
    46    24    25    1
    47    25    26    2
    48    25    27    1
@<TRIPOS>MOLECULE
UD1
 46 48 0 0 0
SMALL
GASTEIGER

@<TRIPOS>ATOM
      1 P          20.4380   71.1553   -2.0236 P.3     1  UNL1        0.2189
      2 O          20.4200   72.6345   -2.0399 O.2     1  UNL1       -0.5170
      3 O          21.8415   70.6291   -2.6119 O.3     1  UNL1       -0.4371
      4 O          19.2325   70.5944   -2.9319 O.3     1  UNL1       -0.3112
      5 C          18.0394   71.2354   -2.4780 C.3     1  UNL1        0.1811
      6 C          16.7326   70.5573   -5.7582 C.3     1  UNL1        0.2383
      7 C          16.8373   69.1651   -5.0866 C.3     1  UNL1        0.1895
      8 O          15.8273   68.2833   -5.5781 O.3     1  UNL1       -0.3779
      9 C          16.5961   69.5051   -3.5929 C.3     1  UNL1        0.1713
     10 C          16.9191   71.0086   -3.4943 C.3     1  UNL1        0.1764
     11 O          17.3455   71.4427   -4.7969 O.3     1  UNL1       -0.3308
     12 O          15.2348   69.2549   -3.2363 O.3     1  UNL1       -0.3794
     13 H          15.9474   67.4384   -5.1230 H       1  UNL1        0.2106
     14 H          15.0785   68.3114   -3.3758 H       1  UNL1        0.2105
     15 N          17.4679   70.5804   -7.0233 N.ar    1  UNL1       -0.2551
     16 C          16.7931   70.5857   -8.1860 C.ar    1  UNL1        0.3323
     17 N          17.4432   70.6107   -9.3646 N.ar    1  UNL1       -0.2743
     18 C          18.7911   70.6216   -9.3969 C.ar    1  UNL1        0.2626
     19 C          19.5140   70.6102   -8.1803 C.ar    1  UNL1        0.0795
     20 C          18.8366   70.5904   -7.0124 C.ar    1  UNL1        0.0869
     21 O          15.5772   70.5762   -8.1732 O.2     1  UNL1       -0.2464
     22 O          19.3800   70.6394  -10.4620 O.2     1  UNL1       -0.2670
     23 H          16.9405   70.6191  -10.1936 H       1  UNL1        0.1734
     24 O          20.2588   70.6330   -0.5124 O.3     1  UNL1       -0.2703
     25 P          21.4372   71.3038    0.3541 P.3     1  UNL1        0.2208
     26 O          22.5444   70.3355    0.5139 O.2     1  UNL1       -0.5170
     27 O          20.8709   71.7144    1.8043 O.3     1  UNL1       -0.4371
     28 O          21.9786   72.6181   -0.4008 O.3     1  UNL1       -0.2865
     29 C          23.3922   72.6599   -0.1979 C.3     1  UNL1        0.2611
     30 C          23.7452   73.8857    0.6465 C.3     1  UNL1        0.1582
     31 C          23.2649   75.1484   -0.0778 C.3     1  UNL1        0.1625
     32 C          23.8400   75.1474   -1.4981 C.3     1  UNL1        0.1686
     33 C          23.4772   73.8275   -2.1818 C.3     1  UNL1        0.1760
     34 O          23.7194   76.3060    0.6256 O.3     1  UNL1       -0.3801
     35 O          23.2880   76.2381   -2.2380 O.3     1  UNL1       -0.3794
     36 O          24.0501   72.7375   -1.4606 O.3     1  UNL1       -0.3263
     37 H          23.3954   77.0750    0.1369 H       1  UNL1        0.2105
     38 H          23.6753   76.1995   -3.1240 H       1  UNL1        0.2105
     39 C          23.7740   73.3457    3.0217 C.2     1  UNL1        0.2231
     40 C          23.0959   73.2449    4.3642 C.3     1  UNL1        0.0946
     41 N          23.0870   73.7881    1.9509 N.am    1  UNL1       -0.2994
     42 O          24.9383   73.0278    2.9052 O.2     1  UNL1       -0.2751
     43 H          22.1552   74.0423    2.0439 H       1  UNL1        0.1496
     44 C          24.0193   73.8298   -3.6126 C.3     1  UNL1        0.1693
     45 O          24.3225   72.4910   -4.0097 O.3     1  UNL1       -0.3794
     46 H          24.6605   72.5372   -4.9143 H       1  UNL1        0.2105
@<TRIPOS>BOND
     1    29    30    1
     2    29    28    1
     3    29    36    1
     4    30    31    1
     5    30    41    1
     6    31    32    1
     7    31    34    1
     8    32    33    1
     9    32    35    1
    10    33    44    1
    11    33    36    1
    12    44    45    1
    13    39    40    1
    14    39    41   am
    15    39    42    2
    16    41    43    1
    17    28    25    1
    18    34    37    1
    19    35    38    1
    20    45    46    1
    21    15    16   ar
    22    15    20   ar
    23    15     6    1
    24    16    17   ar
    25    16    21    2
    26    17    18   ar
    27    17    23    1
    28    18    19   ar
    29    18    22    2
    30    19    20   ar
    31     6     7    1
    32     6    11    1
    33     7     8    1
    34     7     9    1
    35     8    13    1
    36     9    10    1
    37     9    12    1
    38    10    11    1
    39    10     5    1
    40    12    14    1
    41     5     4    1
    42     4     1    1
    43     1     2    2
    44     1     3    1
    45     1    24    1
    46    24    25    1
    47    25    26    2
    48    25    27    1
@<TRIPOS>MOLECULE
UD1
 46 48 0 0 0
SMALL
GASTEIGER

@<TRIPOS>ATOM
      1 P          20.4372   71.0016   -1.8979 P.3     1  UNL1        0.2189
      2 O          20.5878   70.6060   -0.4804 O.2     1  UNL1       -0.5170
      3 O          20.3837   72.6073   -2.0043 O.3     1  UNL1       -0.4371
      4 O          19.0730   70.3801   -2.4859 O.3     1  UNL1       -0.3112
      5 C          18.1461   71.4598   -2.6100 C.3     1  UNL1        0.1811
      6 C          16.8237   70.4708   -5.8038 C.3     1  UNL1        0.2383
      7 C          17.0908   69.1360   -5.0641 C.3     1  UNL1        0.1895
      8 O          16.1637   68.1302   -5.4740 O.3     1  UNL1       -0.3779
      9 C          16.8582   69.5325   -3.5829 C.3     1  UNL1        0.1713
     10 C          17.0268   71.0641   -3.5743 C.3     1  UNL1        0.1764
     11 O          17.3689   71.4661   -4.9117 O.3     1  UNL1       -0.3308
     12 O          15.5408   69.1654   -3.1676 O.3     1  UNL1       -0.3794
     13 H          16.3834   67.3285   -4.9795 H       1  UNL1        0.2106
     14 H          15.4789   68.2046   -3.2520 H       1  UNL1        0.2105
     15 N          17.5164   70.4980   -7.0926 N.ar    1  UNL1       -0.2551
     16 C          16.8032   70.5334   -8.2317 C.ar    1  UNL1        0.3323
     17 N          17.4138   70.5630   -9.4311 N.ar    1  UNL1       -0.2743
     18 C          18.7598   70.5481   -9.5089 C.ar    1  UNL1        0.2626
     19 C          19.5227   70.5049   -8.3177 C.ar    1  UNL1        0.0795
     20 C          18.8847   70.4813   -7.1279 C.ar    1  UNL1        0.0869
     21 O          15.5885   70.5474   -8.1779 O.2     1  UNL1       -0.2464
     22 O          19.3128   70.5700  -10.5929 O.2     1  UNL1       -0.2670
     23 H          16.8838   70.5932  -10.2424 H       1  UNL1        0.1734
     24 O          21.6878   70.4480   -2.7455 O.3     1  UNL1       -0.2703
     25 P          22.9347   71.4106   -2.4167 P.3     1  UNL1        0.2208
     26 O          24.1658   70.8425   -3.0089 O.2     1  UNL1       -0.5170
     27 O          23.1140   71.5317   -0.8213 O.3     1  UNL1       -0.4371
     28 O          22.6652   72.8709   -3.0373 O.3     1  UNL1       -0.2865
     29 C          23.8311   73.2261   -3.7828 C.3     1  UNL1        0.2611
     30 C          24.0262   74.7421   -3.7233 C.3     1  UNL1        0.1582
     31 C          22.7843   75.4304   -4.3007 C.3     1  UNL1        0.1625
     32 C          22.5140   74.8621   -5.6979 C.3     1  UNL1        0.1686
     33 C          22.4299   73.3370   -5.6079 C.3     1  UNL1        0.1760
     34 O          23.0142   76.8378   -4.3888 O.3     1  UNL1       -0.3801
     35 O          21.2791   75.3818   -6.1945 O.3     1  UNL1       -0.3794
     36 O          23.6711   72.8126   -5.1381 O.3     1  UNL1       -0.3263
     37 H          22.2098   77.2299   -4.7556 H       1  UNL1        0.2105
     38 H          21.1477   74.9988   -7.0735 H       1  UNL1        0.2105
     39 C          25.1027   76.1249   -2.0312 C.2     1  UNL1        0.2231
     40 C          25.2970   76.5518   -0.5986 C.3     1  UNL1        0.0946
     41 N          24.2150   75.1575   -2.3319 N.am    1  UNL1       -0.2994
     42 O          25.7461   76.6519   -2.9135 O.2     1  UNL1       -0.2751
     43 H          23.7001   74.7354   -1.6260 H       1  UNL1        0.1496
     44 C          22.1278   72.7615   -6.9930 C.3     1  UNL1        0.1693
     45 O          23.1863   73.1003   -7.8913 O.3     1  UNL1       -0.3794
     46 H          22.9570   72.7200   -8.7501 H       1  UNL1        0.2105
@<TRIPOS>BOND
     1    29    30    1
     2    29    28    1
     3    29    36    1
     4    30    31    1
     5    30    41    1
     6    31    32    1
     7    31    34    1
     8    32    33    1
     9    32    35    1
    10    33    44    1
    11    33    36    1
    12    44    45    1
    13    39    40    1
    14    39    41   am
    15    39    42    2
    16    41    43    1
    17    28    25    1
    18    34    37    1
    19    35    38    1
    20    45    46    1
    21    15    16   ar
    22    15    20   ar
    23    15     6    1
    24    16    17   ar
    25    16    21    2
    26    17    18   ar
    27    17    23    1
    28    18    19   ar
    29    18    22    2
    30    19    20   ar
    31     6     7    1
    32     6    11    1
    33     7     8    1
    34     7     9    1
    35     8    13    1
    36     9    10    1
    37     9    12    1
    38    10    11    1
    39    10     5    1
    40    12    14    1
    41     5     4    1
    42     4     1    1
    43     1     2    2
    44     1     3    1
    45     1    24    1
    46    24    25    1
    47    25    26    2
    48    25    27    1
@<TRIPOS>MOLECULE
UD1
 46 48 0 0 0
SMALL
GASTEIGER

@<TRIPOS>ATOM
      1 P          20.8027   70.7543   -3.3555 P.3     1  UNL1        0.2189
      2 O          20.3687   69.4904   -3.9902 O.2     1  UNL1       -0.5170
      3 O          21.2000   70.4752   -1.8203 O.3     1  UNL1       -0.4371
      4 O          19.5997   71.8232   -3.4116 O.3     1  UNL1       -0.3112
      5 C          18.5000   71.2460   -2.7060 C.3     1  UNL1        0.1811
      6 C          16.9488   70.6193   -5.8885 C.3     1  UNL1        0.2383
      7 C          16.9685   69.2379   -5.1875 C.3     1  UNL1        0.1895
      8 O          15.8572   68.4406   -5.5979 O.3     1  UNL1       -0.3779
      9 C          16.8461   69.6298   -3.6920 C.3     1  UNL1        0.1713
     10 C          17.3066   71.0997   -3.6513 C.3     1  UNL1        0.1764
     11 O          17.6930   71.4660   -4.9869 O.3     1  UNL1       -0.3308
     12 O          15.4911   69.5110   -3.2529 O.3     1  UNL1       -0.3794
     13 H          15.9282   67.5980   -5.1282 H       1  UNL1        0.2106
     14 H          15.2438   68.5826   -3.3585 H       1  UNL1        0.2105
     15 N          17.6080   70.5492   -7.1931 N.ar    1  UNL1       -0.2551
     16 C          16.8677   70.5611   -8.3152 C.ar    1  UNL1        0.3323
     17 N          17.4473   70.5018   -9.5287 N.ar    1  UNL1       -0.2743
     18 C          18.7887   70.4195   -9.6377 C.ar    1  UNL1        0.2626
     19 C          19.5798   70.4000   -8.4644 C.ar    1  UNL1        0.0795
     20 C          18.9727   70.4662   -7.2601 C.ar    1  UNL1        0.0869
     21 O          15.6567   70.6351   -8.2332 O.2     1  UNL1       -0.2464
     22 O          19.3136   70.3609  -10.7343 O.2     1  UNL1       -0.2670
     23 H          16.8981   70.5163  -10.3277 H       1  UNL1        0.1734
     24 O          22.0779   71.3400   -4.1428 O.3     1  UNL1       -0.2703
     25 P          23.1202   71.8479   -3.0270 P.3     1  UNL1        0.2208
     26 O          24.3293   70.9958   -3.0575 O.2     1  UNL1       -0.5170
     27 O          22.4367   71.7566   -1.5721 O.3     1  UNL1       -0.4371
     28 O          23.5316   73.3741   -3.3302 O.3     1  UNL1       -0.2865
     29 C          22.5187   74.1991   -2.7517 C.3     1  UNL1        0.2611
     30 C          21.9534   75.1318   -3.8244 C.3     1  UNL1        0.1582
     31 C          23.0900   75.9888   -4.3931 C.3     1  UNL1        0.1625
     32 C          23.8047   76.6880   -3.2319 C.3     1  UNL1        0.1686
     33 C          24.2331   75.6374   -2.2052 C.3     1  UNL1        0.1760
     34 O          22.5522   76.9655   -5.2865 O.3     1  UNL1       -0.3801
     35 O          24.9568   77.3750   -3.7241 O.3     1  UNL1       -0.3794
     36 O          23.0823   74.9681   -1.6913 O.3     1  UNL1       -0.3263
     37 H          23.2997   77.4806   -5.6201 H       1  UNL1        0.2105
     38 H          25.3762   77.7993   -2.9621 H       1  UNL1        0.2105
     39 C          22.0665   74.0520   -6.0051 C.2     1  UNL1        0.2231
     40 C          21.4487   73.2341   -7.1104 C.3     1  UNL1        0.0946
     41 N          21.3539   74.3369   -4.8982 N.am    1  UNL1       -0.2994
     42 O          23.2053   74.4542   -6.1124 O.2     1  UNL1       -0.2751
     43 H          20.4424   74.0153   -4.8122 H       1  UNL1        0.1496
     44 C          24.9768   76.3221   -1.0566 C.3     1  UNL1        0.1693
     45 O          24.5341   77.6760   -0.9420 O.3     1  UNL1       -0.3794
     46 H          25.0262   78.0702   -0.2092 H       1  UNL1        0.2105
@<TRIPOS>BOND
     1    29    30    1
     2    29    28    1
     3    29    36    1
     4    30    31    1
     5    30    41    1
     6    31    32    1
     7    31    34    1
     8    32    33    1
     9    32    35    1
    10    33    44    1
    11    33    36    1
    12    44    45    1
    13    39    40    1
    14    39    41   am
    15    39    42    2
    16    41    43    1
    17    28    25    1
    18    34    37    1
    19    35    38    1
    20    45    46    1
    21    15    16   ar
    22    15    20   ar
    23    15     6    1
    24    16    17   ar
    25    16    21    2
    26    17    18   ar
    27    17    23    1
    28    18    19   ar
    29    18    22    2
    30    19    20   ar
    31     6     7    1
    32     6    11    1
    33     7     8    1
    34     7     9    1
    35     8    13    1
    36     9    10    1
    37     9    12    1
    38    10    11    1
    39    10     5    1
    40    12    14    1
    41     5     4    1
    42     4     1    1
    43     1     2    2
    44     1     3    1
    45     1    24    1
    46    24    25    1
    47    25    26    2
    48    25    27    1
@<TRIPOS>MOLECULE
UD1
 46 48 0 0 0
SMALL
GASTEIGER

@<TRIPOS>ATOM
      1 P          20.8237   71.4300   -2.1789 P.3     1  UNL1        0.2189
      2 O          21.6020   70.4584   -2.9784 O.2     1  UNL1       -0.5170
      3 O          20.5148   70.8054   -0.7273 O.3     1  UNL1       -0.4371
      4 O          19.4362   71.7525   -2.9296 O.3     1  UNL1       -0.3112
      5 C          18.4696   70.8280   -2.4280 C.3     1  UNL1        0.1811
      6 C          16.9042   70.4972   -5.6478 C.3     1  UNL1        0.2383
      7 C          16.9156   69.0589   -5.0721 C.3     1  UNL1        0.1895
      8 O          15.7970   68.3092   -5.5475 O.3     1  UNL1       -0.3779
      9 C          16.8006   69.3176   -3.5473 C.3     1  UNL1        0.1713
     10 C          17.2723   70.7748   -3.3781 C.3     1  UNL1        0.1764
     11 O          17.6575   71.2552   -4.6774 O.3     1  UNL1       -0.3308
     12 O          15.4461   69.1702   -3.1155 O.3     1  UNL1       -0.3794
     13 H          15.8631   67.4279   -5.1546 H       1  UNL1        0.2106
     14 H          15.1914   68.2567   -3.3021 H       1  UNL1        0.2105
     15 N          17.5590   70.5383   -6.9559 N.ar    1  UNL1       -0.2551
     16 C          16.8168   70.4718   -8.0748 C.ar    1  UNL1        0.3323
     17 N          17.3919   70.5113   -9.2914 N.ar    1  UNL1       -0.2743
     18 C          18.7316   70.6096   -9.4068 C.ar    1  UNL1        0.2626
     19 C          19.5254   70.6744   -8.2369 C.ar    1  UNL1        0.0795
     20 C          18.9222   70.6381   -7.0294 C.ar    1  UNL1        0.0869
     21 O          15.6072   70.3830   -7.9871 O.2     1  UNL1       -0.2464
     22 O          19.2530   70.6406  -10.5062 O.2     1  UNL1       -0.2670
     23 H          16.8408   70.4670  -10.0879 H       1  UNL1        0.1734
     24 O          21.6708   72.7876   -2.0108 O.3     1  UNL1       -0.2703
     25 P          23.0887   72.3747   -1.3717 P.3     1  UNL1        0.2208
     26 O          24.0520   73.4832   -1.5509 O.2     1  UNL1       -0.5170
     27 O          23.6463   71.0558   -2.1078 O.3     1  UNL1       -0.4371
     28 O          22.9036   72.0733    0.1985 O.3     1  UNL1       -0.2865
     29 C          23.2509   73.2718    0.8943 C.3     1  UNL1        0.2611
     30 C          23.6649   72.9232    2.3251 C.3     1  UNL1        0.1582
     31 C          22.5019   72.2096    3.0236 C.3     1  UNL1        0.1625
     32 C          21.2478   73.0816    2.9018 C.3     1  UNL1        0.1686
     33 C          21.0144   73.4157    1.4270 C.3     1  UNL1        0.1760
     34 O          22.8200   72.0124    4.4025 O.3     1  UNL1       -0.3801
     35 O          20.1199   72.3712    3.4166 O.3     1  UNL1       -0.3794
     36 O          22.1271   74.1493    0.9169 O.3     1  UNL1       -0.3263
     37 H          22.0634   71.5615    4.8020 H       1  UNL1        0.2105
     38 H          19.3540   72.9547    3.3201 H       1  UNL1        0.2105
     39 C          26.0116   72.4674    2.7936 C.2     1  UNL1        0.2231
     40 C          27.2153   71.5606    2.7628 C.3     1  UNL1        0.0946
     41 N          24.8344   72.0424    2.2959 N.am    1  UNL1       -0.2994
     42 O          26.1030   73.5804    3.2659 O.2     1  UNL1       -0.2751
     43 H          24.7611   71.1518    1.9176 H       1  UNL1        0.1496
     44 C          19.7453   74.2596    1.2911 C.3     1  UNL1        0.1693
     45 O          19.9745   75.5576    1.8433 O.3     1  UNL1       -0.3794
     46 H          19.1526   76.0556    1.7380 H       1  UNL1        0.2105
@<TRIPOS>BOND
     1    29    30    1
     2    29    28    1
     3    29    36    1
     4    30    31    1
     5    30    41    1
     6    31    32    1
     7    31    34    1
     8    32    33    1
     9    32    35    1
    10    33    44    1
    11    33    36    1
    12    44    45    1
    13    39    40    1
    14    39    41   am
    15    39    42    2
    16    41    43    1
    17    28    25    1
    18    34    37    1
    19    35    38    1
    20    45    46    1
    21    15    16   ar
    22    15    20   ar
    23    15     6    1
    24    16    17   ar
    25    16    21    2
    26    17    18   ar
    27    17    23    1
    28    18    19   ar
    29    18    22    2
    30    19    20   ar
    31     6     7    1
    32     6    11    1
    33     7     8    1
    34     7     9    1
    35     8    13    1
    36     9    10    1
    37     9    12    1
    38    10    11    1
    39    10     5    1
    40    12    14    1
    41     5     4    1
    42     4     1    1
    43     1     2    2
    44     1     3    1
    45     1    24    1
    46    24    25    1
    47    25    26    2
    48    25    27    1
@<TRIPOS>MOLECULE
UD1
 46 48 0 0 0
SMALL
GASTEIGER

@<TRIPOS>ATOM
      1 P          20.8475   71.4094   -3.5023 P.3     1  UNL1        0.2189
      2 O          20.2195   72.6539   -3.0068 O.2     1  UNL1       -0.5170
      3 O          21.2045   71.5732   -5.0638 O.3     1  UNL1       -0.4371
      4 O          19.8246   70.1804   -3.3128 O.3     1  UNL1       -0.3112
      5 C          18.7012   70.6848   -2.5891 C.3     1  UNL1        0.1811
      6 C          17.0102   70.4439   -5.7529 C.3     1  UNL1        0.2383
      7 C          16.9749   69.0036   -5.1833 C.3     1  UNL1        0.1895
      8 O          15.8068   68.3090   -5.6217 O.3     1  UNL1       -0.3779
      9 C          16.9255   69.2592   -3.6544 C.3     1  UNL1        0.1713
     10 C          17.4701   70.6921   -3.4966 C.3     1  UNL1        0.1764
     11 O          17.8314   71.1611   -4.8069 O.3     1  UNL1       -0.3308
     12 O          15.5816   69.1723   -3.1757 O.3     1  UNL1       -0.3794
     13 H          15.8455   67.4235   -5.2346 H       1  UNL1        0.2106
     14 H          15.2784   68.2726   -3.3565 H       1  UNL1        0.2105
     15 N          17.6199   70.4616   -7.0831 N.ar    1  UNL1       -0.2551
     16 C          16.8364   70.4471   -8.1754 C.ar    1  UNL1        0.3323
     17 N          17.3697   70.4667   -9.4113 N.ar    1  UNL1       -0.2743
     18 C          18.7080   70.4921   -9.5735 C.ar    1  UNL1        0.2626
     19 C          19.5447   70.5015   -8.4322 C.ar    1  UNL1        0.0795
     20 C          18.9832   70.4868   -7.2043 C.ar    1  UNL1        0.0869
     21 O          15.6276   70.4243   -8.0454 O.2     1  UNL1       -0.2464
     22 O          19.1914   70.5050  -10.6905 O.2     1  UNL1       -0.2670
     23 H          16.7894   70.4607  -10.1881 H       1  UNL1        0.1734
     24 O          22.1940   71.1197   -2.6705 O.3     1  UNL1       -0.2703
     25 P          23.1412   72.4072   -2.8563 P.3     1  UNL1        0.2208
     26 O          22.3258   73.5597   -3.2988 O.2     1  UNL1       -0.5170
     27 O          24.2671   72.0910   -3.9629 O.3     1  UNL1       -0.4371
     28 O          23.8516   72.7590   -1.4555 O.3     1  UNL1       -0.2865
     29 C          23.0214   73.7188   -0.7993 C.3     1  UNL1        0.2611
     30 C          23.9021   74.7195   -0.0490 C.3     1  UNL1        0.1582
     31 C          24.7643   73.9640    0.9686 C.3     1  UNL1        0.1625
     32 C          23.8465   73.1126    1.8523 C.3     1  UNL1        0.1686
     33 C          22.9719   72.2307    0.9585 C.3     1  UNL1        0.1760
     34 O          25.4805   74.8991    1.7773 O.3     1  UNL1       -0.3801
     35 O          24.6386   72.2891    2.7102 O.3     1  UNL1       -0.3794
     36 O          22.1594   73.0505    0.1193 O.3     1  UNL1       -0.3263
     37 H          26.0084   74.3820    2.4012 H       1  UNL1        0.2105
     38 H          24.0226   71.7706    3.2471 H       1  UNL1        0.2105
     39 C          24.6790   76.7578   -1.1334 C.2     1  UNL1        0.2231
     40 C          25.5692   77.4788   -2.1133 C.3     1  UNL1        0.0946
     41 N          24.7670   75.4204   -1.0004 N.am    1  UNL1       -0.2994
     42 O          23.8828   77.3818   -0.4650 O.2     1  UNL1       -0.2751
     43 H          25.4040   74.9208   -1.5354 H       1  UNL1        0.1496
     44 C          22.0741   71.3525    1.8325 C.3     1  UNL1        0.1693
     45 O          21.5447   70.2821    1.0477 O.3     1  UNL1       -0.3794
     46 H          20.9862   69.7545    1.6345 H       1  UNL1        0.2105
@<TRIPOS>BOND
     1    29    30    1
     2    29    28    1
     3    29    36    1
     4    30    31    1
     5    30    41    1
     6    31    32    1
     7    31    34    1
     8    32    33    1
     9    32    35    1
    10    33    44    1
    11    33    36    1
    12    44    45    1
    13    39    40    1
    14    39    41   am
    15    39    42    2
    16    41    43    1
    17    28    25    1
    18    34    37    1
    19    35    38    1
    20    45    46    1
    21    15    16   ar
    22    15    20   ar
    23    15     6    1
    24    16    17   ar
    25    16    21    2
    26    17    18   ar
    27    17    23    1
    28    18    19   ar
    29    18    22    2
    30    19    20   ar
    31     6     7    1
    32     6    11    1
    33     7     8    1
    34     7     9    1
    35     8    13    1
    36     9    10    1
    37     9    12    1
    38    10    11    1
    39    10     5    1
    40    12    14    1
    41     5     4    1
    42     4     1    1
    43     1     2    2
    44     1     3    1
    45     1    24    1
    46    24    25    1
    47    25    26    2
    48    25    27    1
@<TRIPOS>MOLECULE
UD1
 46 48 0 0 0
SMALL
GASTEIGER

@<TRIPOS>ATOM
      1 P          20.5898   71.9584   -1.7969 P.3     1  UNL1        0.2189
      2 O          21.3704   73.2068   -1.9417 O.2     1  UNL1       -0.5170
      3 O          21.5024   70.7023   -2.2232 O.3     1  UNL1       -0.4371
      4 O          19.2917   72.0245   -2.7475 O.3     1  UNL1       -0.3112
      5 C          18.4539   70.9273   -2.3808 C.3     1  UNL1        0.1811
      6 C          16.9169   70.5466   -5.6088 C.3     1  UNL1        0.2383
      7 C          16.9420   69.1141   -5.0194 C.3     1  UNL1        0.1895
      8 O          15.8365   68.3459   -5.4960 O.3     1  UNL1       -0.3779
      9 C          16.8123   69.3856   -3.4980 C.3     1  UNL1        0.1713
     10 C          17.2645   70.8501   -3.3392 C.3     1  UNL1        0.1764
     11 O          17.6533   71.3231   -4.6401 O.3     1  UNL1       -0.3308
     12 O          15.4566   69.2251   -3.0749 O.3     1  UNL1       -0.3794
     13 H          15.9107   67.4692   -5.0942 H       1  UNL1        0.2106
     14 H          15.2148   68.3067   -3.2546 H       1  UNL1        0.2105
     15 N          17.5809   70.5837   -6.9123 N.ar    1  UNL1       -0.2551
     16 C          16.8488   70.4885   -8.0359 C.ar    1  UNL1        0.3323
     17 N          17.4324   70.5237   -9.2485 N.ar    1  UNL1       -0.2743
     18 C          18.7709   70.6464   -9.3551 C.ar    1  UNL1        0.2626
     19 C          19.5542   70.7415   -8.1802 C.ar    1  UNL1        0.0795
     20 C          18.9425   70.7090   -6.9769 C.ar    1  UNL1        0.0869
     21 O          15.6405   70.3774   -7.9561 O.2     1  UNL1       -0.2464
     22 O          19.3001   70.6735  -10.4508 O.2     1  UNL1       -0.2670
     23 H          16.8885   70.4585  -10.0485 H       1  UNL1        0.1734
     24 O          20.1252   71.7904   -0.2656 O.3     1  UNL1       -0.2703
     25 P          21.4535   71.4955    0.5934 P.3     1  UNL1        0.2208
     26 O          22.6238   72.0919   -0.0875 O.2     1  UNL1       -0.5170
     27 O          21.6647   69.9050    0.7275 O.3     1  UNL1       -0.4371
     28 O          21.2999   72.1405    2.0600 O.3     1  UNL1       -0.2865
     29 C          21.5570   73.5395    1.9266 C.3     1  UNL1        0.2611
     30 C          22.7824   73.9099    2.7639 C.3     1  UNL1        0.1582
     31 C          22.5171   73.5458    4.2290 C.3     1  UNL1        0.1625
     32 C          21.2046   74.2039    4.6676 C.3     1  UNL1        0.1686
     33 C          20.0973   73.8088    3.6882 C.3     1  UNL1        0.1760
     34 O          23.5906   74.0220    5.0428 O.3     1  UNL1       -0.3801
     35 O          20.8629   73.7596    5.9819 O.3     1  UNL1       -0.3794
     36 O          20.4224   74.2751    2.3792 O.3     1  UNL1       -0.3263
     37 H          23.3831   73.7716    5.9536 H       1  UNL1        0.2105
     38 H          20.0322   74.1964    6.2178 H       1  UNL1        0.2105
     39 C          24.2684   71.9804    2.8228 C.2     1  UNL1        0.2231
     40 C          25.4700   71.2198    2.3229 C.3     1  UNL1        0.0946
     41 N          23.9493   73.1704    2.2783 N.am    1  UNL1       -0.2994
     42 O          23.5889   71.5215    3.7160 O.2     1  UNL1       -0.2751
     43 H          24.4931   73.5380    1.5636 H       1  UNL1        0.1496
     44 C          18.7749   74.4348    4.1358 C.3     1  UNL1        0.1693
     45 O          18.1453   73.5838    5.0957 O.3     1  UNL1       -0.3794
     46 H          17.3177   74.0137    5.3506 H       1  UNL1        0.2105
@<TRIPOS>BOND
     1    29    30    1
     2    29    28    1
     3    29    36    1
     4    30    31    1
     5    30    41    1
     6    31    32    1
     7    31    34    1
     8    32    33    1
     9    32    35    1
    10    33    44    1
    11    33    36    1
    12    44    45    1
    13    39    40    1
    14    39    41   am
    15    39    42    2
    16    41    43    1
    17    28    25    1
    18    34    37    1
    19    35    38    1
    20    45    46    1
    21    15    16   ar
    22    15    20   ar
    23    15     6    1
    24    16    17   ar
    25    16    21    2
    26    17    18   ar
    27    17    23    1
    28    18    19   ar
    29    18    22    2
    30    19    20   ar
    31     6     7    1
    32     6    11    1
    33     7     8    1
    34     7     9    1
    35     8    13    1
    36     9    10    1
    37     9    12    1
    38    10    11    1
    39    10     5    1
    40    12    14    1
    41     5     4    1
    42     4     1    1
    43     1     2    2
    44     1     3    1
    45     1    24    1
    46    24    25    1
    47    25    26    2
    48    25    27    1
@<TRIPOS>MOLECULE
UD1
 46 48 0 0 0
SMALL
GASTEIGER

@<TRIPOS>ATOM
      1 P          20.6764   71.9545   -2.0161 P.3     1  UNL1        0.2189
      2 O          20.6888   72.8981   -3.1554 O.2     1  UNL1       -0.5170
      3 O          21.5712   70.6654   -2.3770 O.3     1  UNL1       -0.4371
      4 O          19.1630   71.4904   -1.7208 O.3     1  UNL1       -0.3112
      5 C          18.9362   70.3065   -2.4872 C.3     1  UNL1        0.1811
      6 C          17.1593   70.4189   -5.6109 C.3     1  UNL1        0.2383
      7 C          16.9850   68.9607   -5.1174 C.3     1  UNL1        0.1895
      8 O          15.7407   68.4169   -5.5592 O.3     1  UNL1       -0.3779
      9 C          16.9969   69.1349   -3.5764 C.3     1  UNL1        0.1713
     10 C          17.6929   70.4923   -3.3584 C.3     1  UNL1        0.1764
     11 O          18.0724   70.9931   -4.6516 O.3     1  UNL1       -0.3308
     12 O          15.6623   69.1619   -3.0656 O.3     1  UNL1       -0.3794
     13 H          15.6944   67.5121   -5.2207 H       1  UNL1        0.2106
     14 H          15.2619   68.3101   -3.2852 H       1  UNL1        0.2105
     15 N          17.7378   70.4468   -6.9548 N.ar    1  UNL1       -0.2551
     16 C          16.9290   70.4360   -8.0287 C.ar    1  UNL1        0.3323
     17 N          17.4333   70.4649   -9.2765 N.ar    1  UNL1       -0.2743
     18 C          18.7673   70.4962   -9.4697 C.ar    1  UNL1        0.2626
     19 C          19.6304   70.5019   -8.3482 C.ar    1  UNL1        0.0795
     20 C          19.0977   70.4777   -7.1076 C.ar    1  UNL1        0.0869
     21 O          15.7237   70.4079   -7.8707 O.2     1  UNL1       -0.2464
     22 O          19.2244   70.5176  -10.5976 O.2     1  UNL1       -0.2670
     23 H          16.8350   70.4614  -10.0396 H       1  UNL1        0.1734
     24 O          21.2793   72.6794   -0.7123 O.3     1  UNL1       -0.2703
     25 P          22.1404   71.5734    0.0781 P.3     1  UNL1        0.2208
     26 O          23.2249   71.0754   -0.7963 O.2     1  UNL1       -0.5170
     27 O          21.1848   70.3475    0.4979 O.3     1  UNL1       -0.4371
     28 O          22.7777   72.2325    1.4010 O.3     1  UNL1       -0.2865
     29 C          22.3913   73.6079    1.4063 C.3     1  UNL1        0.2611
     30 C          23.5861   74.4697    0.9943 C.3     1  UNL1        0.1582
     31 C          24.7399   74.2281    1.9740 C.3     1  UNL1        0.1625
     32 C          24.2290   74.4606    3.3999 C.3     1  UNL1        0.1686
     33 C          22.9873   73.5969    3.6314 C.3     1  UNL1        0.1760
     34 O          25.8069   75.1351    1.6903 O.3     1  UNL1       -0.3801
     35 O          25.2456   74.0993    4.3367 O.3     1  UNL1       -0.3794
     36 O          21.9602   73.9740    2.7152 O.3     1  UNL1       -0.3263
     37 H          26.5094   74.9482    2.3281 H       1  UNL1        0.2105
     38 H          24.8827   74.2601    5.2192 H       1  UNL1        0.2105
     39 C          24.3083   75.0686   -1.2538 C.2     1  UNL1        0.2231
     40 C          24.7424   74.6943   -2.6480 C.3     1  UNL1        0.0946
     41 N          24.0083   74.1066   -0.3600 N.am    1  UNL1       -0.2994
     42 O          24.2284   76.2362   -0.9366 O.2     1  UNL1       -0.2751
     43 H          24.0719   73.1722   -0.6137 H       1  UNL1        0.1496
     44 C          22.4881   73.7973    5.0638 C.3     1  UNL1        0.1693
     45 O          22.3649   72.5276    5.7077 O.3     1  UNL1       -0.3794
     46 H          22.0484   72.6985    6.6051 H       1  UNL1        0.2105
@<TRIPOS>BOND
     1    29    30    1
     2    29    28    1
     3    29    36    1
     4    30    31    1
     5    30    41    1
     6    31    32    1
     7    31    34    1
     8    32    33    1
     9    32    35    1
    10    33    44    1
    11    33    36    1
    12    44    45    1
    13    39    40    1
    14    39    41   am
    15    39    42    2
    16    41    43    1
    17    28    25    1
    18    34    37    1
    19    35    38    1
    20    45    46    1
    21    15    16   ar
    22    15    20   ar
    23    15     6    1
    24    16    17   ar
    25    16    21    2
    26    17    18   ar
    27    17    23    1
    28    18    19   ar
    29    18    22    2
    30    19    20   ar
    31     6     7    1
    32     6    11    1
    33     7     8    1
    34     7     9    1
    35     8    13    1
    36     9    10    1
    37     9    12    1
    38    10    11    1
    39    10     5    1
    40    12    14    1
    41     5     4    1
    42     4     1    1
    43     1     2    2
    44     1     3    1
    45     1    24    1
    46    24    25    1
    47    25    26    2
    48    25    27    1
@<TRIPOS>MOLECULE
UD1
 46 48 0 0 0
SMALL
GASTEIGER

@<TRIPOS>ATOM
      1 P          21.6329   71.1010    0.0630 P.3     1  UNL1        0.2189
      2 O          21.6348   70.0896    1.1427 O.2     1  UNL1       -0.5170
      3 O          23.0961   71.1758   -0.6049 O.3     1  UNL1       -0.4371
      4 O          21.2501   72.5396    0.6768 O.3     1  UNL1       -0.3112
      5 C          21.4975   72.4693    2.0818 C.3     1  UNL1        0.1811
      6 C          24.7810   73.7707    2.7542 C.3     1  UNL1        0.2383
      7 C          24.5308   74.1007    1.2613 C.3     1  UNL1        0.1895
      8 O          25.2084   75.2992    0.8823 O.3     1  UNL1       -0.3779
      9 C          22.9932   74.2992    1.2249 C.3     1  UNL1        0.1713
     10 C          22.4906   73.5617    2.4811 C.3     1  UNL1        0.1764
     11 O          23.6357   72.9717    3.1198 O.3     1  UNL1       -0.3308
     12 O          22.6664   75.6891    1.2886 O.3     1  UNL1       -0.3794
     13 H          25.0133   75.4474   -0.0534 H       1  UNL1        0.2106
     14 H          23.0580   76.1041    0.5085 H       1  UNL1        0.2105
     15 N          26.0175   73.0052    2.9168 N.ar    1  UNL1       -0.2551
     16 C          26.0833   71.7414    2.4631 C.ar    1  UNL1        0.3323
     17 N          27.2090   71.0151    2.5956 N.ar    1  UNL1       -0.2743
     18 C          28.2926   71.5451    3.1980 C.ar    1  UNL1        0.2626
     19 C          28.2351   72.8724    3.6855 C.ar    1  UNL1        0.0795
     20 C          27.0951   73.5802    3.5347 C.ar    1  UNL1        0.0869
     21 O          25.1143   71.2495    1.9175 O.2     1  UNL1       -0.2464
     22 O          29.3093   70.8877    3.3225 O.2     1  UNL1       -0.2670
     23 H          27.2403   70.1066    2.2582 H       1  UNL1        0.1734
     24 O          20.5518   70.6900   -1.0555 O.3     1  UNL1       -0.2703
     25 P          20.4318   71.9364   -2.0662 P.3     1  UNL1        0.2208
     26 O          21.5699   72.8569   -1.8513 O.2     1  UNL1       -0.5170
     27 O          19.0511   72.7184   -1.7935 O.3     1  UNL1       -0.4371
     28 O          20.4533   71.4019   -3.5842 O.3     1  UNL1       -0.2865
     29 C          19.7948   72.3886   -4.3804 C.3     1  UNL1        0.2611
     30 C          18.6640   71.7276   -5.1706 C.3     1  UNL1        0.1582
     31 C          19.2506   70.6217   -6.0552 C.3     1  UNL1        0.1625
     32 C          20.3770   71.2196   -6.9049 C.3     1  UNL1        0.1686
     33 C          21.3803   71.9164   -5.9835 C.3     1  UNL1        0.1760
     34 O          18.2300   70.0981   -6.9071 O.3     1  UNL1       -0.3801
     35 O          21.0343   70.1775   -7.6286 O.3     1  UNL1       -0.3794
     36 O          20.7332   72.9757   -5.2794 O.3     1  UNL1       -0.3263
     37 H          18.6417   69.4072   -7.4442 H       1  UNL1        0.2105
     38 H          21.7348   70.5967   -8.1482 H       1  UNL1        0.2105
     39 C          16.4847   71.7263   -4.0822 C.2     1  UNL1        0.2231
     40 C          15.4835   71.1303   -3.1259 C.3     1  UNL1        0.0946
     41 N          17.6909   71.1487   -4.2421 N.am    1  UNL1       -0.2994
     42 O          16.2046   72.7267   -4.7074 O.2     1  UNL1       -0.2751
     43 H          17.9153   70.3482   -3.7416 H       1  UNL1        0.1496
     44 C          22.5265   72.4890   -6.8197 C.3     1  UNL1        0.1693
     45 O          22.0916   72.6617   -8.1699 O.3     1  UNL1       -0.3794
     46 H          22.8416   73.0230   -8.6615 H       1  UNL1        0.2105
@<TRIPOS>BOND
     1    29    30    1
     2    29    28    1
     3    29    36    1
     4    30    31    1
     5    30    41    1
     6    31    32    1
     7    31    34    1
     8    32    33    1
     9    32    35    1
    10    33    44    1
    11    33    36    1
    12    44    45    1
    13    39    40    1
    14    39    41   am
    15    39    42    2
    16    41    43    1
    17    28    25    1
    18    34    37    1
    19    35    38    1
    20    45    46    1
    21    15    16   ar
    22    15    20   ar
    23    15     6    1
    24    16    17   ar
    25    16    21    2
    26    17    18   ar
    27    17    23    1
    28    18    19   ar
    29    18    22    2
    30    19    20   ar
    31     6     7    1
    32     6    11    1
    33     7     8    1
    34     7     9    1
    35     8    13    1
    36     9    10    1
    37     9    12    1
    38    10    11    1
    39    10     5    1
    40    12    14    1
    41     5     4    1
    42     4     1    1
    43     1     2    2
    44     1     3    1
    45     1    24    1
    46    24    25    1
    47    25    26    2
    48    25    27    1
@<TRIPOS>MOLECULE
UD1
 46 48 0 0 0
SMALL
GASTEIGER

@<TRIPOS>ATOM
      1 P          22.8502   71.6179   -2.5185 P.3     1  UNL1        0.2189
      2 O          24.0333   70.8730   -3.0026 O.2     1  UNL1       -0.5170
      3 O          22.5357   71.1955   -0.9969 O.3     1  UNL1       -0.4371
      4 O          21.5805   71.2680   -3.4449 O.3     1  UNL1       -0.3112
      5 C          20.6323   70.5989   -2.6121 C.3     1  UNL1        0.1811
      6 C          18.1076   70.7088   -5.1695 C.3     1  UNL1        0.2383
      7 C          17.9659   69.2983   -4.5446 C.3     1  UNL1        0.1895
      8 O          16.6136   68.8441   -4.6093 O.3     1  UNL1       -0.3779
      9 C          18.3960   69.5483   -3.0757 C.3     1  UNL1        0.1713
     10 C          19.2199   70.8487   -3.1430 C.3     1  UNL1        0.1764
     11 O          19.2798   71.2484   -4.5228 O.3     1  UNL1       -0.3308
     12 O          17.2487   69.7179   -2.2403 O.3     1  UNL1       -0.3794
     13 H          16.5937   67.9650   -4.2064 H       1  UNL1        0.2106
     14 H          16.7449   68.8945   -2.2872 H       1  UNL1        0.2105
     15 N          18.3117   70.6180   -6.6157 N.ar    1  UNL1       -0.2551
     16 C          17.2498   70.6235   -7.4402 C.ar    1  UNL1        0.3323
     17 N          17.4080   70.5452   -8.7747 N.ar    1  UNL1       -0.2743
     18 C          18.6426   70.4501   -9.3082 C.ar    1  UNL1        0.2626
     19 C          19.7690   70.4372   -8.4515 C.ar    1  UNL1        0.0795
     20 C          19.5819   70.5224   -7.1169 C.ar    1  UNL1        0.0869
     21 O          16.1299   70.7089   -6.9741 O.2     1  UNL1       -0.2464
     22 O          18.7865   70.3743  -10.5144 O.2     1  UNL1       -0.2670
     23 H          16.6310   70.5553   -9.3547 H       1  UNL1        0.1734
     24 O          23.1456   73.1980   -2.5877 O.3     1  UNL1       -0.2703
     25 P          23.6364   73.5139   -4.0873 P.3     1  UNL1        0.2208
     26 O          23.6114   72.2694   -4.8869 O.2     1  UNL1       -0.5170
     27 O          25.1367   74.0969   -4.0501 O.3     1  UNL1       -0.4371
     28 O          22.6562   74.6012   -4.7562 O.3     1  UNL1       -0.2865
     29 C          22.4561   74.1999   -6.1127 C.3     1  UNL1        0.2611
     30 C          22.7786   75.3734   -7.0394 C.3     1  UNL1        0.1582
     31 C          21.8698   76.5560   -6.6853 C.3     1  UNL1        0.1625
     32 C          20.4132   76.0814   -6.7169 C.3     1  UNL1        0.1686
     33 C          20.2686   74.8561   -5.8120 C.3     1  UNL1        0.1760
     34 O          22.0560   77.6048   -7.6376 O.3     1  UNL1       -0.3801
     35 O          19.5596   77.1270   -6.2480 O.3     1  UNL1       -0.3794
     36 O          21.0993   73.8004   -6.2935 O.3     1  UNL1       -0.3263
     37 H          21.4671   78.3264   -7.3772 H       1  UNL1        0.2105
     38 H          18.6545   76.7863   -6.2836 H       1  UNL1        0.2105
     39 C          24.5014   76.7781   -6.0430 C.2     1  UNL1        0.2231
     40 C          25.9439   77.1789   -5.8668 C.3     1  UNL1        0.0946
     41 N          24.1797   75.7628   -6.8675 N.am    1  UNL1       -0.2994
     42 O          23.6300   77.3703   -5.4429 O.2     1  UNL1       -0.2751
     43 H          24.8769   75.2889   -7.3480 H       1  UNL1        0.1496
     44 C          18.8100   74.3936   -5.8110 C.3     1  UNL1        0.1693
     45 O          18.4266   74.0228   -7.1367 O.3     1  UNL1       -0.3794
     46 H          17.5036   73.7388   -7.0920 H       1  UNL1        0.2105
@<TRIPOS>BOND
     1    29    30    1
     2    29    28    1
     3    29    36    1
     4    30    31    1
     5    30    41    1
     6    31    32    1
     7    31    34    1
     8    32    33    1
     9    32    35    1
    10    33    44    1
    11    33    36    1
    12    44    45    1
    13    39    40    1
    14    39    41   am
    15    39    42    2
    16    41    43    1
    17    28    25    1
    18    34    37    1
    19    35    38    1
    20    45    46    1
    21    15    16   ar
    22    15    20   ar
    23    15     6    1
    24    16    17   ar
    25    16    21    2
    26    17    18   ar
    27    17    23    1
    28    18    19   ar
    29    18    22    2
    30    19    20   ar
    31     6     7    1
    32     6    11    1
    33     7     8    1
    34     7     9    1
    35     8    13    1
    36     9    10    1
    37     9    12    1
    38    10    11    1
    39    10     5    1
    40    12    14    1
    41     5     4    1
    42     4     1    1
    43     1     2    2
    44     1     3    1
    45     1    24    1
    46    24    25    1
    47    25    26    2
    48    25    27    1
@<TRIPOS>MOLECULE
UD1
 46 48 0 0 0
SMALL
GASTEIGER

@<TRIPOS>ATOM
      1 P          22.5852   71.7555   -2.4171 P.3     1  UNL1        0.2189
      2 O          23.1258   72.9963   -1.8197 O.2     1  UNL1       -0.5170
      3 O          23.8006   70.8367   -2.9378 O.3     1  UNL1       -0.4371
      4 O          21.6278   72.1301   -3.6564 O.3     1  UNL1       -0.3112
      5 C          20.6198   73.0066   -3.1505 C.3     1  UNL1        0.1811
      6 C          18.3506   71.5315   -5.5173 C.3     1  UNL1        0.2383
      7 C          18.7847   70.3534   -4.6096 C.3     1  UNL1        0.1895
      8 O          17.7425   69.3837   -4.4973 O.3     1  UNL1       -0.3779
      9 C          19.0301   71.0617   -3.2519 C.3     1  UNL1        0.1713
     10 C          19.2462   72.5388   -3.6340 C.3     1  UNL1        0.1764
     11 O          19.1765   72.6264   -5.0674 O.3     1  UNL1       -0.3308
     12 O          17.8910   70.9200   -2.4005 O.3     1  UNL1       -0.3794
     13 H          18.0750   68.6803   -3.9227 H       1  UNL1        0.2106
     14 H          17.7731   69.9730   -2.2471 H       1  UNL1        0.2105
     15 N          18.6164   71.2285   -6.9241 N.ar    1  UNL1       -0.2551
     16 C          19.8090   71.5423   -7.4594 C.ar    1  UNL1        0.3323
     17 N          20.0824   71.2718   -8.7495 N.ar    1  UNL1       -0.2743
     18 C          19.1541   70.6860   -9.5325 C.ar    1  UNL1        0.2626
     19 C          17.8923   70.3558   -8.9833 C.ar    1  UNL1        0.0795
     20 C          17.6464   70.6335   -7.6849 C.ar    1  UNL1        0.0869
     21 O          20.6566   72.0709   -6.7660 O.2     1  UNL1       -0.2464
     22 O          19.3986   70.4453  -10.7002 O.2     1  UNL1       -0.2670
     23 H          20.9497   71.5007   -9.1178 H       1  UNL1        0.1734
     24 O          21.7393   70.9511   -1.3097 O.3     1  UNL1       -0.2703
     25 P          22.5049   71.1459    0.0921 P.3     1  UNL1        0.2208
     26 O          23.9461   70.8659   -0.0900 O.2     1  UNL1       -0.5170
     27 O          21.8954   70.1306    1.1829 O.3     1  UNL1       -0.4371
     28 O          22.3129   72.6597    0.6040 O.3     1  UNL1       -0.2865
     29 C          22.0429   72.5923    2.0053 C.3     1  UNL1        0.2611
     30 C          21.0227   73.6703    2.3755 C.3     1  UNL1        0.1582
     31 C          21.5868   75.0449    1.9986 C.3     1  UNL1        0.1625
     32 C          22.9664   75.2029    2.6465 C.3     1  UNL1        0.1686
     33 C          23.8412   74.0106    2.2533 C.3     1  UNL1        0.1760
     34 O          20.7108   76.0687    2.4740 O.3     1  UNL1       -0.3801
     35 O          23.5729   76.4135    2.1901 O.3     1  UNL1       -0.3794
     36 O          23.2521   72.8020    2.7315 O.3     1  UNL1       -0.3263
     37 H          21.1029   76.9141    2.2155 H       1  UNL1        0.2105
     38 H          24.4375   76.4728    2.6208 H       1  UNL1        0.2105
     39 C          19.5799   74.0063    0.4417 C.2     1  UNL1        0.2231
     40 C          18.2951   73.7644   -0.3087 C.3     1  UNL1        0.0946
     41 N          19.7750   73.4352    1.6459 N.am    1  UNL1       -0.2994
     42 O          20.4380   74.7158   -0.0383 O.2     1  UNL1       -0.2751
     43 H          19.0883   72.8676    2.0304 H       1  UNL1        0.1496
     44 C          25.2322   74.1751    2.8689 C.3     1  UNL1        0.1693
     45 O          25.1115   74.7426    4.1749 O.3     1  UNL1       -0.3794
     46 H          26.0080   74.8295    4.5262 H       1  UNL1        0.2105
@<TRIPOS>BOND
     1    29    30    1
     2    29    28    1
     3    29    36    1
     4    30    31    1
     5    30    41    1
     6    31    32    1
     7    31    34    1
     8    32    33    1
     9    32    35    1
    10    33    44    1
    11    33    36    1
    12    44    45    1
    13    39    40    1
    14    39    41   am
    15    39    42    2
    16    41    43    1
    17    28    25    1
    18    34    37    1
    19    35    38    1
    20    45    46    1
    21    15    16   ar
    22    15    20   ar
    23    15     6    1
    24    16    17   ar
    25    16    21    2
    26    17    18   ar
    27    17    23    1
    28    18    19   ar
    29    18    22    2
    30    19    20   ar
    31     6     7    1
    32     6    11    1
    33     7     8    1
    34     7     9    1
    35     8    13    1
    36     9    10    1
    37     9    12    1
    38    10    11    1
    39    10     5    1
    40    12    14    1
    41     5     4    1
    42     4     1    1
    43     1     2    2
    44     1     3    1
    45     1    24    1
    46    24    25    1
    47    25    26    2
    48    25    27    1
@<TRIPOS>MOLECULE
UD1
 46 48 0 0 0
SMALL
GASTEIGER

@<TRIPOS>ATOM
      1 P          23.2262   74.3497   -3.6822 P.3     1  UNL1        0.2189
      2 O          24.3602   73.7713   -4.4361 O.2     1  UNL1       -0.5170
      3 O          23.2626   75.9547   -3.8057 O.3     1  UNL1       -0.4371
      4 O          23.3425   73.9289   -2.1323 O.3     1  UNL1       -0.3112
      5 C          22.0239   73.9902   -1.5867 C.3     1  UNL1        0.1811
      6 C          23.1239   72.1926    1.3263 C.3     1  UNL1        0.2383
      7 C          22.2903   73.3710    1.8891 C.3     1  UNL1        0.1895
      8 O          21.6566   73.0085    3.1165 O.3     1  UNL1       -0.3779
      9 C          21.2409   73.5919    0.7688 C.3     1  UNL1        0.1713
     10 C          21.8814   72.9483   -0.4762 C.3     1  UNL1        0.1764
     11 O          23.1792   72.4645   -0.0902 O.3     1  UNL1       -0.3308
     12 O          20.0116   72.9422    1.0994 O.3     1  UNL1       -0.3794
     13 H          21.1567   73.7817    3.4127 H       1  UNL1        0.2106
     14 H          19.6926   73.3475    1.9168 H       1  UNL1        0.2105
     15 N          24.4686   72.1854    1.9034 N.ar    1  UNL1       -0.2551
     16 C          25.1434   71.0272    2.0060 C.ar    1  UNL1        0.3323
     17 N          26.3834   70.9914    2.5290 N.ar    1  UNL1       -0.2743
     18 C          26.9679   72.1237    2.9696 C.ar    1  UNL1        0.2626
     19 C          26.2664   73.3490    2.8730 C.ar    1  UNL1        0.0795
     20 C          25.0261   73.3571    2.3393 C.ar    1  UNL1        0.0869
     21 O          24.6296   69.9976    1.6130 O.2     1  UNL1       -0.2464
     22 O          28.0870   72.0918    3.4470 O.2     1  UNL1       -0.2670
     23 H          26.8574   70.1478    2.5910 H       1  UNL1        0.1734
     24 O          21.8418   73.7952   -4.2862 O.3     1  UNL1       -0.2703
     25 P          22.1724   72.3858   -4.9887 P.3     1  UNL1        0.2208
     26 O          22.8628   71.5033   -4.0227 O.2     1  UNL1       -0.5170
     27 O          23.1232   72.6314   -6.2646 O.3     1  UNL1       -0.4371
     28 O          20.8029   71.6893   -5.4680 O.3     1  UNL1       -0.2865
     29 C          20.0033   72.7130   -6.0628 C.3     1  UNL1        0.2611
     30 C          18.6188   72.7145   -5.4124 C.3     1  UNL1        0.1582
     31 C          17.9712   71.3392   -5.6090 C.3     1  UNL1        0.1625
     32 C          17.9894   70.9979   -7.1028 C.3     1  UNL1        0.1686
     33 C          19.4222   71.1231   -7.6251 C.3     1  UNL1        0.1760
     34 O          16.6224   71.3733   -5.1387 O.3     1  UNL1       -0.3801
     35 O          17.5249   69.6602   -7.2932 O.3     1  UNL1       -0.3794
     36 O          19.8795   72.4649   -7.4616 O.3     1  UNL1       -0.3263
     37 H          16.2545   70.4903   -5.2810 H       1  UNL1        0.2105
     38 H          17.5534   69.4869   -8.2448 H       1  UNL1        0.2105
     39 C          18.2285   74.1237   -3.4640 C.2     1  UNL1        0.2231
     40 C          18.3646   74.4118   -1.9906 C.3     1  UNL1        0.0946
     41 N          18.7502   72.9946   -3.9811 N.am    1  UNL1       -0.2994
     42 O          17.6498   74.9087   -4.1844 O.2     1  UNL1       -0.2751
     43 H          19.2136   72.3663   -3.4048 H       1  UNL1        0.1496
     44 C          19.4568   70.7527   -9.1093 C.3     1  UNL1        0.1693
     45 O          18.3009   71.2839   -9.7603 O.3     1  UNL1       -0.3794
     46 H          18.3615   71.0283  -10.6907 H       1  UNL1        0.2105
@<TRIPOS>BOND
     1    29    30    1
     2    29    28    1
     3    29    36    1
     4    30    31    1
     5    30    41    1
     6    31    32    1
     7    31    34    1
     8    32    33    1
     9    32    35    1
    10    33    44    1
    11    33    36    1
    12    44    45    1
    13    39    40    1
    14    39    41   am
    15    39    42    2
    16    41    43    1
    17    28    25    1
    18    34    37    1
    19    35    38    1
    20    45    46    1
    21    15    16   ar
    22    15    20   ar
    23    15     6    1
    24    16    17   ar
    25    16    21    2
    26    17    18   ar
    27    17    23    1
    28    18    19   ar
    29    18    22    2
    30    19    20   ar
    31     6     7    1
    32     6    11    1
    33     7     8    1
    34     7     9    1
    35     8    13    1
    36     9    10    1
    37     9    12    1
    38    10    11    1
    39    10     5    1
    40    12    14    1
    41     5     4    1
    42     4     1    1
    43     1     2    2
    44     1     3    1
    45     1    24    1
    46    24    25    1
    47    25    26    2
    48    25    27    1
@<TRIPOS>MOLECULE
UD1
 46 48 0 0 0
SMALL
GASTEIGER

@<TRIPOS>ATOM
      1 P          22.7812   71.4681   -2.9698 P.3     1  UNL1        0.2189
      2 O          24.1576   70.9356   -3.0732 O.2     1  UNL1       -0.5170
      3 O          22.4973   72.4647   -4.2022 O.3     1  UNL1       -0.4371
      4 O          22.6199   72.2711   -1.5834 O.3     1  UNL1       -0.3112
      5 C          23.7438   71.9262   -0.7721 C.3     1  UNL1        0.1811
      6 C          22.9555   72.0865    2.7322 C.3     1  UNL1        0.2383
      7 C          21.6190   72.4099    2.0185 C.3     1  UNL1        0.1895
      8 O          20.5050   71.9688    2.7953 O.3     1  UNL1       -0.3779
      9 C          21.7415   71.5871    0.7096 C.3     1  UNL1        0.1713
     10 C          23.2562   71.3487    0.5575 C.3     1  UNL1        0.1764
     11 O          23.9083   72.0185    1.6500 O.3     1  UNL1       -0.3308
     12 O          21.0429   70.3462    0.8315 O.3     1  UNL1       -0.3794
     13 H          19.7080   72.1992    2.2981 H       1  UNL1        0.2106
     14 H          20.1134   70.5628    0.9838 H       1  UNL1        0.2105
     15 N          23.3146   73.1511    3.6698 N.ar    1  UNL1       -0.2551
     16 C          24.0163   74.2125    3.2358 C.ar    1  UNL1        0.3323
     17 N          24.3570   75.2084    4.0750 N.ar    1  UNL1       -0.2743
     18 C          24.0048   75.1516    5.3753 C.ar    1  UNL1        0.2626
     19 C          23.2711   74.0370    5.8468 C.ar    1  UNL1        0.0795
     20 C          22.9379   73.0548    4.9823 C.ar    1  UNL1        0.0869
     21 O          24.3412   74.2782    2.0658 O.2     1  UNL1       -0.2464
     22 O          24.3164   76.0491    6.1360 O.2     1  UNL1       -0.2670
     23 H          24.8592   75.9688    3.7438 H       1  UNL1        0.1734
     24 O          21.7302   70.2505   -3.0098 O.3     1  UNL1       -0.2703
     25 P          20.2610   70.9018   -2.9296 P.3     1  UNL1        0.2208
     26 O          20.3787   72.3726   -2.8221 O.2     1  UNL1       -0.5170
     27 O          19.4895   70.3300   -1.6373 O.3     1  UNL1       -0.4371
     28 O          19.4326   70.5256   -4.2573 O.3     1  UNL1       -0.2865
     29 C          18.8814   71.7436   -4.7611 C.3     1  UNL1        0.2611
     30 C          17.4021   71.5315   -5.0877 C.3     1  UNL1        0.1582
     31 C          17.2736   70.4098   -6.1245 C.3     1  UNL1        0.1625
     32 C          18.1645   70.7474   -7.3247 C.3     1  UNL1        0.1686
     33 C          19.5872   71.0157   -6.8295 C.3     1  UNL1        0.1760
     34 O          15.9133   70.3033   -6.5486 O.3     1  UNL1       -0.3801
     35 O          18.1739   69.6478   -8.2372 O.3     1  UNL1       -0.3794
     36 O          19.5854   72.1309   -5.9391 O.3     1  UNL1       -0.3263
     37 H          15.8784   69.5877   -7.1982 H       1  UNL1        0.2105
     38 H          18.7458   69.9018   -8.9754 H       1  UNL1        0.2105
     39 C          16.4698   69.8599   -3.5808 C.2     1  UNL1        0.2231
     40 C          15.7259   69.4766   -2.3269 C.3     1  UNL1        0.0946
     41 N          16.6800   71.1586   -3.8696 N.am    1  UNL1       -0.2994
     42 O          16.8787   68.9989   -4.3303 O.2     1  UNL1       -0.2751
     43 H          16.3527   71.8478   -3.2700 H       1  UNL1        0.1496
     44 C          20.4925   71.3221   -8.0244 C.3     1  UNL1        0.1693
     45 O          21.8062   71.6374   -7.5587 O.3     1  UNL1       -0.3794
     46 H          22.3431   71.8237   -8.3408 H       1  UNL1        0.2105
@<TRIPOS>BOND
     1    29    30    1
     2    29    28    1
     3    29    36    1
     4    30    31    1
     5    30    41    1
     6    31    32    1
     7    31    34    1
     8    32    33    1
     9    32    35    1
    10    33    44    1
    11    33    36    1
    12    44    45    1
    13    39    40    1
    14    39    41   am
    15    39    42    2
    16    41    43    1
    17    28    25    1
    18    34    37    1
    19    35    38    1
    20    45    46    1
    21    15    16   ar
    22    15    20   ar
    23    15     6    1
    24    16    17   ar
    25    16    21    2
    26    17    18   ar
    27    17    23    1
    28    18    19   ar
    29    18    22    2
    30    19    20   ar
    31     6     7    1
    32     6    11    1
    33     7     8    1
    34     7     9    1
    35     8    13    1
    36     9    10    1
    37     9    12    1
    38    10    11    1
    39    10     5    1
    40    12    14    1
    41     5     4    1
    42     4     1    1
    43     1     2    2
    44     1     3    1
    45     1    24    1
    46    24    25    1
    47    25    26    2
    48    25    27    1
@<TRIPOS>MOLECULE
UD1
 46 48 0 0 0
SMALL
GASTEIGER

@<TRIPOS>ATOM
      1 P          22.0993   72.6439   -0.9747 P.3     1  UNL1        0.2189
      2 O          20.7759   72.4367   -0.3467 O.2     1  UNL1       -0.5170
      3 O          22.2287   74.1731   -1.4619 O.3     1  UNL1       -0.4371
      4 O          22.2504   71.6632   -2.2429 O.3     1  UNL1       -0.3112
      5 C          21.1105   71.8841   -3.0750 C.3     1  UNL1        0.1811
      6 C          20.2653   71.1076   -6.4823 C.3     1  UNL1        0.2383
      7 C          20.7260   72.5862   -6.5239 C.3     1  UNL1        0.1895
      8 O          21.3282   72.8987   -7.7805 O.3     1  UNL1       -0.3779
      9 C          21.7736   72.6331   -5.3813 C.3     1  UNL1        0.1713
     10 C          21.4200   71.4202   -4.4991 C.3     1  UNL1        0.1764
     11 O          20.2591   70.7955   -5.0730 O.3     1  UNL1       -0.3308
     12 O          23.0958   72.5075   -5.9093 O.3     1  UNL1       -0.3794
     13 H          21.5911   73.8287   -7.7416 H       1  UNL1        0.2106
     14 H          23.2344   73.2617   -6.4975 H       1  UNL1        0.2105
     15 N          18.9234   70.9655   -7.0483 N.ar    1  UNL1       -0.2551
     16 C          18.7777   70.6780   -8.3535 C.ar    1  UNL1        0.3323
     17 N          17.5556   70.5377   -8.9002 N.ar    1  UNL1       -0.2743
     18 C          16.4507   70.6938   -8.1434 C.ar    1  UNL1        0.2626
     19 C          16.5894   71.0026   -6.7693 C.ar    1  UNL1        0.0795
     20 C          17.8272   71.1324   -6.2455 C.ar    1  UNL1        0.0869
     21 O          19.7647   70.5342   -9.0491 O.2     1  UNL1       -0.2464
     22 O          15.3452   70.5719   -8.6377 O.2     1  UNL1       -0.2670
     23 H          17.4693   70.3255   -9.8424 H       1  UNL1        0.1734
     24 O          23.2574   72.3205    0.0944 O.3     1  UNL1       -0.2703
     25 P          22.6593   71.2254    1.1105 P.3     1  UNL1        0.2208
     26 O          23.6644   70.1640    1.3392 O.2     1  UNL1       -0.5170
     27 O          21.3286   70.5760    0.4783 O.3     1  UNL1       -0.4371
     28 O          22.2969   71.9318    2.5105 O.3     1  UNL1       -0.2865
     29 C          22.5613   73.3268    2.3515 C.3     1  UNL1        0.2611
     30 C          23.5544   73.7781    3.4239 C.3     1  UNL1        0.1582
     31 C          22.9606   73.4942    4.8083 C.3     1  UNL1        0.1625
     32 C          21.5744   74.1423    4.8892 C.3     1  UNL1        0.1686
     33 C          20.7295   73.6610    3.7078 C.3     1  UNL1        0.1760
     34 O          23.8102   74.0457    5.8160 O.3     1  UNL1       -0.3801
     35 O          20.9424   73.7674    6.1147 O.3     1  UNL1       -0.3794
     36 O          21.3439   74.0578    2.4824 O.3     1  UNL1       -0.3263
     37 H          23.4000   73.8441    6.6683 H       1  UNL1        0.2105
     38 H          20.0745   74.1954    6.1241 H       1  UNL1        0.2105
     39 C          25.9885   73.6825    3.4015 C.2     1  UNL1        0.2231
     40 C          27.2816   72.9246    3.2412 C.3     1  UNL1        0.0946
     41 N          24.8109   73.0422    3.2688 N.am    1  UNL1       -0.2994
     42 O          26.0080   74.8692    3.6493 O.2     1  UNL1       -0.2751
     43 H          24.7950   72.0925    3.0702 H       1  UNL1        0.1496
     44 C          19.3319   74.2774    3.7973 C.3     1  UNL1        0.1693
     45 O          18.5416   73.5338    4.7271 O.3     1  UNL1       -0.3794
     46 H          17.6712   73.9538    4.7533 H       1  UNL1        0.2105
@<TRIPOS>BOND
     1    29    30    1
     2    29    28    1
     3    29    36    1
     4    30    31    1
     5    30    41    1
     6    31    32    1
     7    31    34    1
     8    32    33    1
     9    32    35    1
    10    33    44    1
    11    33    36    1
    12    44    45    1
    13    39    40    1
    14    39    41   am
    15    39    42    2
    16    41    43    1
    17    28    25    1
    18    34    37    1
    19    35    38    1
    20    45    46    1
    21    15    16   ar
    22    15    20   ar
    23    15     6    1
    24    16    17   ar
    25    16    21    2
    26    17    18   ar
    27    17    23    1
    28    18    19   ar
    29    18    22    2
    30    19    20   ar
    31     6     7    1
    32     6    11    1
    33     7     8    1
    34     7     9    1
    35     8    13    1
    36     9    10    1
    37     9    12    1
    38    10    11    1
    39    10     5    1
    40    12    14    1
    41     5     4    1
    42     4     1    1
    43     1     2    2
    44     1     3    1
    45     1    24    1
    46    24    25    1
    47    25    26    2
    48    25    27    1
@<TRIPOS>MOLECULE
UD1
 46 48 0 0 0
SMALL
GASTEIGER

@<TRIPOS>ATOM
      1 P          21.7510   73.3843   -6.7121 P.3     1  UNL1        0.2189
      2 O          22.2080   74.4346   -7.6485 O.2     1  UNL1       -0.5170
      3 O          22.8722   72.2335   -6.6077 O.3     1  UNL1       -0.4371
      4 O          20.3758   72.7449   -7.2534 O.3     1  UNL1       -0.3112
      5 C          20.7336   71.7031   -8.1627 C.3     1  UNL1        0.1811
      6 C          17.7490   70.1099   -6.9457 C.3     1  UNL1        0.2383
      7 C          17.2453   71.1162   -8.0105 C.3     1  UNL1        0.1895
      8 O          16.0592   70.6374   -8.6456 O.3     1  UNL1       -0.3779
      9 C          18.4310   71.1541   -9.0093 C.3     1  UNL1        0.1713
     10 C          19.6301   70.6444   -8.1866 C.3     1  UNL1        0.1764
     11 O          19.1603   70.3976   -6.8503 O.3     1  UNL1       -0.3308
     12 O          18.1765   70.2928  -10.1211 O.3     1  UNL1       -0.3794
     13 H          15.7986   71.3066   -9.2934 H       1  UNL1        0.2106
     14 H          17.3828   70.6286  -10.5586 H       1  UNL1        0.2105
     15 N          17.0875   70.3390   -5.6606 N.ar    1  UNL1       -0.2551
     16 C          16.4664   69.3209   -5.0401 C.ar    1  UNL1        0.3323
     17 N          15.8532   69.5018   -3.8554 N.ar    1  UNL1       -0.2743
     18 C          15.8447   70.7179   -3.2733 C.ar    1  UNL1        0.2626
     19 C          16.4896   71.7999   -3.9186 C.ar    1  UNL1        0.0795
     20 C          17.1016   71.5894   -5.1037 C.ar    1  UNL1        0.0869
     21 O          16.4655   68.2181   -5.5523 O.2     1  UNL1       -0.2464
     22 O          15.2865   70.8837   -2.2046 O.2     1  UNL1       -0.2670
     23 H          15.4142   68.7551   -3.4196 H       1  UNL1        0.1734
     24 O          21.5067   74.0303   -5.2588 O.3     1  UNL1       -0.2703
     25 P          22.7447   73.5789   -4.3353 P.3     1  UNL1        0.2208
     26 O          23.8075   74.6061   -4.3987 O.2     1  UNL1       -0.5170
     27 O          23.3254   72.1736   -4.8645 O.3     1  UNL1       -0.4371
     28 O          22.2482   73.4137   -2.8133 O.3     1  UNL1       -0.2865
     29 C          23.2661   72.6878   -2.1217 C.3     1  UNL1        0.2611
     30 C          22.6490   71.4490   -1.4703 C.3     1  UNL1        0.1582
     31 C          21.5454   71.8891   -0.5018 C.3     1  UNL1        0.1625
     32 C          22.1303   72.9159    0.4738 C.3     1  UNL1        0.1686
     33 C          22.7839   74.0458   -0.3245 C.3     1  UNL1        0.1760
     34 O          21.0640   70.7555    0.2226 O.3     1  UNL1       -0.3801
     35 O          21.0856   73.4481    1.2905 O.3     1  UNL1       -0.3794
     36 O          23.8459   73.5218   -1.1208 O.3     1  UNL1       -0.3263
     37 H          20.3731   71.0773    0.8179 H       1  UNL1        0.2105
     38 H          21.4966   74.0892    1.8878 H       1  UNL1        0.2105
     39 C          20.7716   70.6815   -2.8195 C.2     1  UNL1        0.2231
     40 C          20.1838   69.7911   -3.8843 C.3     1  UNL1        0.0946
     41 N          22.0777   70.5845   -2.5050 N.am    1  UNL1       -0.2994
     42 O          20.0684   71.4852   -2.2451 O.2     1  UNL1       -0.2751
     43 H          22.6406   69.9413   -2.9643 H       1  UNL1        0.1496
     44 C          23.3429   75.0933    0.6406 C.3     1  UNL1        0.1693
     45 O          24.7664   74.9807    0.6942 O.3     1  UNL1       -0.3794
     46 H          25.0775   75.6562    1.3119 H       1  UNL1        0.2105
@<TRIPOS>BOND
     1    29    30    1
     2    29    28    1
     3    29    36    1
     4    30    31    1
     5    30    41    1
     6    31    32    1
     7    31    34    1
     8    32    33    1
     9    32    35    1
    10    33    44    1
    11    33    36    1
    12    44    45    1
    13    39    40    1
    14    39    41   am
    15    39    42    2
    16    41    43    1
    17    28    25    1
    18    34    37    1
    19    35    38    1
    20    45    46    1
    21    15    16   ar
    22    15    20   ar
    23    15     6    1
    24    16    17   ar
    25    16    21    2
    26    17    18   ar
    27    17    23    1
    28    18    19   ar
    29    18    22    2
    30    19    20   ar
    31     6     7    1
    32     6    11    1
    33     7     8    1
    34     7     9    1
    35     8    13    1
    36     9    10    1
    37     9    12    1
    38    10    11    1
    39    10     5    1
    40    12    14    1
    41     5     4    1
    42     4     1    1
    43     1     2    2
    44     1     3    1
    45     1    24    1
    46    24    25    1
    47    25    26    2
    48    25    27    1
@<TRIPOS>MOLECULE
UD1
 46 48 0 0 0
SMALL
GASTEIGER

@<TRIPOS>ATOM
      1 P          20.5781   73.4294   -2.2225 P.3     1  UNL1        0.2189
      2 O          21.5332   74.5386   -2.0075 O.2     1  UNL1       -0.5170
      3 O          19.3365   73.9535   -3.1037 O.3     1  UNL1       -0.4371
      4 O          20.0400   72.9019   -0.7995 O.3     1  UNL1       -0.3112
      5 C          20.8547   73.5116    0.2029 C.3     1  UNL1        0.1811
      6 C          23.0124   71.8780    2.5700 C.3     1  UNL1        0.2383
      7 C          22.3143   72.9939    3.3869 C.3     1  UNL1        0.1895
      8 O          22.1587   72.6065    4.7526 O.3     1  UNL1       -0.3779
      9 C          20.9372   73.1008    2.6817 C.3     1  UNL1        0.1713
     10 C          21.1806   72.4861    1.2898 C.3     1  UNL1        0.1764
     11 O          22.5698   72.1222    1.2179 O.3     1  UNL1       -0.3308
     12 O          19.9491   72.3571    3.3983 O.3     1  UNL1       -0.3794
     13 H          21.7206   73.3411    5.2040 H       1  UNL1        0.2106
     14 H          19.8860   72.7520    4.2782 H       1  UNL1        0.2105
     15 N          24.4678   71.9970    2.6661 N.ar    1  UNL1       -0.2551
     16 C          25.2408   70.9212    2.4372 C.ar    1  UNL1        0.3323
     17 N          26.5823   71.0025    2.5147 N.ar    1  UNL1       -0.2743
     18 C          27.1749   72.1706    2.8345 C.ar    1  UNL1        0.2626
     19 C          26.3728   73.3096    3.0838 C.ar    1  UNL1        0.0795
     20 C          25.0298   73.2013    2.9939 C.ar    1  UNL1        0.0869
     21 O          24.7212   69.8607    2.1476 O.2     1  UNL1       -0.2464
     22 O          28.3875   72.2441    2.9095 O.2     1  UNL1       -0.2670
     23 H          27.1247   70.2176    2.3417 H       1  UNL1        0.1734
     24 O          21.3168   72.2273   -2.9958 O.3     1  UNL1       -0.2703
     25 P          20.3918   70.9226   -2.8187 P.3     1  UNL1        0.2208
     26 O          20.4522   70.4624   -1.4139 O.2     1  UNL1       -0.5170
     27 O          20.9216   69.7524   -3.7893 O.3     1  UNL1       -0.4371
     28 O          18.8707   71.2860   -3.1993 O.3     1  UNL1       -0.2865
     29 C          18.2763   70.0935   -3.7150 C.3     1  UNL1        0.2611
     30 C          17.6391   70.3933   -5.0730 C.3     1  UNL1        0.1582
     31 C          16.5848   71.4925   -4.9002 C.3     1  UNL1        0.1625
     32 C          15.6065   71.0647   -3.8011 C.3     1  UNL1        0.1686
     33 C          16.3970   70.7171   -2.5379 C.3     1  UNL1        0.1760
     34 O          15.8791   71.6765   -6.1288 O.3     1  UNL1       -0.3801
     35 O          14.7033   72.1361   -3.5217 O.3     1  UNL1       -0.3794
     36 O          17.2805   69.6291   -2.8062 O.3     1  UNL1       -0.3263
     37 H          15.2281   72.3749   -5.9752 H       1  UNL1        0.2105
     38 H          14.1073   71.8252   -2.8256 H       1  UNL1        0.2105
     39 C          18.6299   70.4558   -7.2975 C.2     1  UNL1        0.2231
     40 C          19.6921   70.9213   -8.2605 C.3     1  UNL1        0.0946
     41 N          18.6705   70.8457   -6.0089 N.am    1  UNL1       -0.2994
     42 O          17.7387   69.7294   -7.6827 O.2     1  UNL1       -0.2751
     43 H          19.3837   71.4268   -5.7004 H       1  UNL1        0.1496
     44 C          15.4266   70.3197   -1.4237 C.3     1  UNL1        0.1693
     45 O          15.0297   71.4855   -0.6988 O.3     1  UNL1       -0.3794
     46 H          14.4206   71.1916   -0.0080 H       1  UNL1        0.2105
@<TRIPOS>BOND
     1    29    30    1
     2    29    28    1
     3    29    36    1
     4    30    31    1
     5    30    41    1
     6    31    32    1
     7    31    34    1
     8    32    33    1
     9    32    35    1
    10    33    44    1
    11    33    36    1
    12    44    45    1
    13    39    40    1
    14    39    41   am
    15    39    42    2
    16    41    43    1
    17    28    25    1
    18    34    37    1
    19    35    38    1
    20    45    46    1
    21    15    16   ar
    22    15    20   ar
    23    15     6    1
    24    16    17   ar
    25    16    21    2
    26    17    18   ar
    27    17    23    1
    28    18    19   ar
    29    18    22    2
    30    19    20   ar
    31     6     7    1
    32     6    11    1
    33     7     8    1
    34     7     9    1
    35     8    13    1
    36     9    10    1
    37     9    12    1
    38    10    11    1
    39    10     5    1
    40    12    14    1
    41     5     4    1
    42     4     1    1
    43     1     2    2
    44     1     3    1
    45     1    24    1
    46    24    25    1
    47    25    26    2
    48    25    27    1
@<TRIPOS>MOLECULE
UD1
 46 48 0 0 0
SMALL
GASTEIGER

@<TRIPOS>ATOM
      1 P          22.0421   74.5679   -1.8254 P.3     1  UNL1        0.2189
      2 O          22.2163   75.7836   -1.0004 O.2     1  UNL1       -0.5170
      3 O          21.3063   74.9557   -3.2040 O.3     1  UNL1       -0.4371
      4 O          21.1454   73.4988   -1.0219 O.3     1  UNL1       -0.3112
      5 C          21.0997   73.9352    0.3374 C.3     1  UNL1        0.1811
      6 C          23.1826   71.9332    2.4777 C.3     1  UNL1        0.2383
      7 C          22.4764   72.9226    3.4383 C.3     1  UNL1        0.1895
      8 O          22.2839   72.3356    4.7257 O.3     1  UNL1       -0.3779
      9 C          21.1180   73.1537    2.7267 C.3     1  UNL1        0.1713
     10 C          21.3887   72.7530    1.2637 C.3     1  UNL1        0.1764
     11 O          22.7753   72.3849    1.1686 O.3     1  UNL1       -0.3308
     12 O          20.1052   72.3242    3.3003 O.3     1  UNL1       -0.3794
     13 H          21.8426   72.9996    5.2732 H       1  UNL1        0.2106
     14 H          20.0250   72.5825    4.2281 H       1  UNL1        0.2105
     15 N          24.6363   72.0162    2.6232 N.ar    1  UNL1       -0.2551
     16 C          25.3918   70.9274    2.3970 C.ar    1  UNL1        0.3323
     17 N          26.7316   70.9757    2.5195 N.ar    1  UNL1       -0.2743
     18 C          27.3398   72.1230    2.8825 C.ar    1  UNL1        0.2626
     19 C          26.5560   73.2752    3.1295 C.ar    1  UNL1        0.0795
     20 C          25.2146   73.2002    2.9941 C.ar    1  UNL1        0.0869
     21 O          24.8579   69.8854    2.0688 O.2     1  UNL1       -0.2464
     22 O          28.5506   72.1666    2.9982 O.2     1  UNL1       -0.2670
     23 H          27.2613   70.1820    2.3479 H       1  UNL1        0.1734
     24 O          23.4823   73.9265   -2.1466 O.3     1  UNL1       -0.2703
     25 P          23.2116   72.5021   -2.8447 P.3     1  UNL1        0.2208
     26 O          23.5011   71.4176   -1.8809 O.2     1  UNL1       -0.5170
     27 O          24.1661   72.3443   -4.1316 O.3     1  UNL1       -0.4371
     28 O          21.6722   72.4131   -3.3060 O.3     1  UNL1       -0.2865
     29 C          21.6373   71.5976   -4.4785 C.3     1  UNL1        0.2611
     30 C          20.9365   72.3607   -5.6038 C.3     1  UNL1        0.1582
     31 C          19.5166   72.7237   -5.1548 C.3     1  UNL1        0.1625
     32 C          18.8071   71.4465   -4.6928 C.3     1  UNL1        0.1686
     33 C          19.6673   70.7538   -3.6338 C.3     1  UNL1        0.1760
     34 O          18.8022   73.3036   -6.2478 O.3     1  UNL1       -0.3801
     35 O          17.5357   71.7816   -4.1334 O.3     1  UNL1       -0.3794
     36 O          20.9279   70.3931   -4.1970 O.3     1  UNL1       -0.3263
     37 H          17.9170   73.5163   -5.9216 H       1  UNL1        0.2105
     38 H          17.1246   70.9508   -3.8555 H       1  UNL1        0.2105
     39 C          22.2178   73.7634   -7.1287 C.2     1  UNL1        0.2231
     40 C          22.9869   75.0222   -7.4386 C.3     1  UNL1        0.0946
     41 N          21.6833   73.5837   -5.9055 N.am    1  UNL1       -0.2994
     42 O          22.0805   72.9116   -7.9806 O.2     1  UNL1       -0.2751
     43 H          21.7932   74.2651   -5.2235 H       1  UNL1        0.1496
     44 C          18.9522   69.4937   -3.1420 C.3     1  UNL1        0.1693
     45 O          18.2707   69.7788   -1.9188 O.3     1  UNL1       -0.3794
     46 H          17.8349   68.9608   -1.6440 H       1  UNL1        0.2105
@<TRIPOS>BOND
     1    29    30    1
     2    29    28    1
     3    29    36    1
     4    30    31    1
     5    30    41    1
     6    31    32    1
     7    31    34    1
     8    32    33    1
     9    32    35    1
    10    33    44    1
    11    33    36    1
    12    44    45    1
    13    39    40    1
    14    39    41   am
    15    39    42    2
    16    41    43    1
    17    28    25    1
    18    34    37    1
    19    35    38    1
    20    45    46    1
    21    15    16   ar
    22    15    20   ar
    23    15     6    1
    24    16    17   ar
    25    16    21    2
    26    17    18   ar
    27    17    23    1
    28    18    19   ar
    29    18    22    2
    30    19    20   ar
    31     6     7    1
    32     6    11    1
    33     7     8    1
    34     7     9    1
    35     8    13    1
    36     9    10    1
    37     9    12    1
    38    10    11    1
    39    10     5    1
    40    12    14    1
    41     5     4    1
    42     4     1    1
    43     1     2    2
    44     1     3    1
    45     1    24    1
    46    24    25    1
    47    25    26    2
    48    25    27    1
@<TRIPOS>MOLECULE
UD1
 46 48 0 0 0
SMALL
GASTEIGER

@<TRIPOS>ATOM
      1 P          23.5131   72.4643   -3.2025 P.3     1  UNL1        0.2189
      2 O          24.4778   73.4033   -3.8161 O.2     1  UNL1       -0.5170
      3 O          24.1300   70.9770   -3.2147 O.3     1  UNL1       -0.4371
      4 O          22.1397   72.4814   -4.0429 O.3     1  UNL1       -0.3112
      5 C          22.5000   72.5544   -5.4232 C.3     1  UNL1        0.1811
      6 C          19.4640   70.7358   -6.0577 C.3     1  UNL1        0.2383
      7 C          19.2599   72.0941   -6.7744 C.3     1  UNL1        0.1895
      8 O          18.4270   71.9449   -7.9248 O.3     1  UNL1       -0.3779
      9 C          20.7084   72.4667   -7.1845 C.3     1  UNL1        0.1713
     10 C          21.5921   71.6317   -6.2378 C.3     1  UNL1        0.1764
     11 O          20.7149   70.9079   -5.3582 O.3     1  UNL1       -0.3308
     12 O          20.9495   72.1115   -8.5478 O.3     1  UNL1       -0.3794
     13 H          18.3396   72.8220   -8.3230 H       1  UNL1        0.2106
     14 H          20.3273   72.6214   -9.0835 H       1  UNL1        0.2105
     15 N          18.3759   70.4780   -5.1137 N.ar    1  UNL1       -0.2551
     16 C          17.2642   69.8496   -5.5338 C.ar    1  UNL1        0.3323
     17 N          16.2493   69.5959   -4.6866 N.ar    1  UNL1       -0.2743
     18 C          16.3292   69.9792   -3.3964 C.ar    1  UNL1        0.2626
     19 C          17.4914   70.6469   -2.9422 C.ar    1  UNL1        0.0795
     20 C          18.4966   70.8840   -3.8120 C.ar    1  UNL1        0.0869
     21 O          17.1772   69.4977   -6.6945 O.2     1  UNL1       -0.2464
     22 O          15.4102   69.7545   -2.6307 O.2     1  UNL1       -0.2670
     23 H          15.4567   69.1373   -5.0057 H       1  UNL1        0.1734
     24 O          23.2192   72.9120   -1.6853 O.3     1  UNL1       -0.2703
     25 P          22.7788   71.5864   -0.8865 P.3     1  UNL1        0.2208
     26 O          23.9845   70.8270   -0.4885 O.2     1  UNL1       -0.5170
     27 O          21.8564   70.6689   -1.8350 O.3     1  UNL1       -0.4371
     28 O          21.9481   72.0016    0.4281 O.3     1  UNL1       -0.2865
     29 C          22.5136   73.2231    0.9071 C.3     1  UNL1        0.2611
     30 C          23.0260   73.0173    2.3336 C.3     1  UNL1        0.1582
     31 C          21.8609   72.5740    3.2256 C.3     1  UNL1        0.1625
     32 C          20.7206   73.5876    3.0822 C.3     1  UNL1        0.1686
     33 C          20.3800   73.7481    1.5991 C.3     1  UNL1        0.1760
     34 O          22.2924   72.5230    4.5867 O.3     1  UNL1       -0.3801
     35 O          19.5716   73.1176    3.7898 O.3     1  UNL1       -0.3794
     36 O          21.5176   74.2435    0.8941 O.3     1  UNL1       -0.3263
     37 H          21.5304   72.2403    5.1110 H       1  UNL1        0.2105
     38 H          18.8793   73.7836    3.6728 H       1  UNL1        0.2105
     39 C          25.3604   72.3344    2.4694 C.2     1  UNL1        0.2231
     40 C          26.4306   71.2729    2.4720 C.3     1  UNL1        0.0946
     41 N          24.0660   71.9864    2.3367 N.am    1  UNL1       -0.2994
     42 O          25.6646   73.5023    2.5862 O.2     1  UNL1       -0.2751
     43 H          23.8223   71.0519    2.2429 H       1  UNL1        0.1496
     44 C          19.2201   74.7343    1.4473 C.3     1  UNL1        0.1693
     45 O          19.0091   75.0125    0.0616 O.3     1  UNL1       -0.3794
     46 H          18.2722   75.6361    0.0105 H       1  UNL1        0.2105
@<TRIPOS>BOND
     1    29    30    1
     2    29    28    1
     3    29    36    1
     4    30    31    1
     5    30    41    1
     6    31    32    1
     7    31    34    1
     8    32    33    1
     9    32    35    1
    10    33    44    1
    11    33    36    1
    12    44    45    1
    13    39    40    1
    14    39    41   am
    15    39    42    2
    16    41    43    1
    17    28    25    1
    18    34    37    1
    19    35    38    1
    20    45    46    1
    21    15    16   ar
    22    15    20   ar
    23    15     6    1
    24    16    17   ar
    25    16    21    2
    26    17    18   ar
    27    17    23    1
    28    18    19   ar
    29    18    22    2
    30    19    20   ar
    31     6     7    1
    32     6    11    1
    33     7     8    1
    34     7     9    1
    35     8    13    1
    36     9    10    1
    37     9    12    1
    38    10    11    1
    39    10     5    1
    40    12    14    1
    41     5     4    1
    42     4     1    1
    43     1     2    2
    44     1     3    1
    45     1    24    1
    46    24    25    1
    47    25    26    2
    48    25    27    1
@<TRIPOS>MOLECULE
UD1
 46 48 0 0 0
SMALL
GASTEIGER

@<TRIPOS>ATOM
      1 P          22.7198   72.2219   -3.7604 P.3     1  UNL1        0.2189
      2 O          23.9914   72.4538   -4.4801 O.2     1  UNL1       -0.5170
      3 O          22.1302   73.6289   -3.2454 O.3     1  UNL1       -0.4371
      4 O          22.9863   71.2586   -2.4980 O.3     1  UNL1       -0.3112
      5 C          23.1455   72.1046   -1.3581 C.3     1  UNL1        0.1811
      6 C          24.5428   71.4887    1.8970 C.3     1  UNL1        0.2383
      7 C          23.0977   71.9702    2.1797 C.3     1  UNL1        0.1895
      8 O          22.5844   71.3744    3.3717 O.3     1  UNL1       -0.3779
      9 C          22.3335   71.4573    0.9314 C.3     1  UNL1        0.1713
     10 C          23.4370   71.2496   -0.1239 C.3     1  UNL1        0.1764
     11 O          24.6815   71.6566    0.4700 O.3     1  UNL1       -0.3308
     12 O          21.6714   70.2244    1.2216 O.3     1  UNL1       -0.3794
     13 H          21.6866   71.7141    3.4905 H       1  UNL1        0.2106
     14 H          21.0377   70.4073    1.9281 H       1  UNL1        0.2105
     15 N          25.5153   72.3168    2.6111 N.ar    1  UNL1       -0.2551
     16 C          26.7600   71.8534    2.8188 C.ar    1  UNL1        0.3323
     17 N          27.6762   72.5949    3.4691 N.ar    1  UNL1       -0.2743
     18 C          27.3541   73.8191    3.9335 C.ar    1  UNL1        0.2626
     19 C          26.0455   74.3168    3.7270 C.ar    1  UNL1        0.0795
     20 C          25.1478   73.5542    3.0668 C.ar    1  UNL1        0.0869
     21 O          27.0657   70.7512    2.4059 O.2     1  UNL1       -0.2464
     22 O          28.1803   74.4885    4.5258 O.2     1  UNL1       -0.2670
     23 H          28.5708   72.2468    3.6059 H       1  UNL1        0.1734
     24 O          21.6610   71.5259   -4.7521 O.3     1  UNL1       -0.2703
     25 P          20.2568   71.4706   -3.9683 P.3     1  UNL1        0.2208
     26 O          19.8261   72.8450   -3.6304 O.2     1  UNL1       -0.5170
     27 O          20.4300   70.6154   -2.6152 O.3     1  UNL1       -0.4371
     28 O          19.1462   70.7748   -4.9027 O.3     1  UNL1       -0.2865
     29 C          18.4259   71.8282   -5.5450 C.3     1  UNL1        0.2611
     30 C          16.9889   71.3723   -5.8045 C.3     1  UNL1        0.1582
     31 C          17.0124   70.1178   -6.6849 C.3     1  UNL1        0.1625
     32 C          17.8388   70.4154   -7.9404 C.3     1  UNL1        0.1686
     33 C          19.2130   70.9407   -7.5196 C.3     1  UNL1        0.1760
     34 O          15.6778   69.7693   -7.0575 O.3     1  UNL1       -0.3801
     35 O          17.9966   69.2179   -8.7038 O.3     1  UNL1       -0.3794
     36 O          19.0605   72.1517   -6.7803 O.3     1  UNL1       -0.3263
     37 H          15.7394   68.9770   -7.6086 H       1  UNL1        0.2105
     38 H          18.5220   69.4499   -9.4826 H       1  UNL1        0.2105
     39 C          16.3629   69.8106   -4.0429 C.2     1  UNL1        0.2231
     40 C          15.6887   69.4954   -2.7320 C.3     1  UNL1        0.0946
     41 N          16.3346   71.0657   -4.5308 N.am    1  UNL1       -0.2994
     42 O          16.9303   68.9339   -4.6590 O.2     1  UNL1       -0.2751
     43 H          15.8804   71.7674   -4.0381 H       1  UNL1        0.1496
     44 C          20.0581   71.2105   -8.7662 C.3     1  UNL1        0.1693
     45 O          21.1720   72.0351   -8.4178 O.3     1  UNL1       -0.3794
     46 H          21.6769   72.1809   -9.2292 H       1  UNL1        0.2105
@<TRIPOS>BOND
     1    29    30    1
     2    29    28    1
     3    29    36    1
     4    30    31    1
     5    30    41    1
     6    31    32    1
     7    31    34    1
     8    32    33    1
     9    32    35    1
    10    33    44    1
    11    33    36    1
    12    44    45    1
    13    39    40    1
    14    39    41   am
    15    39    42    2
    16    41    43    1
    17    28    25    1
    18    34    37    1
    19    35    38    1
    20    45    46    1
    21    15    16   ar
    22    15    20   ar
    23    15     6    1
    24    16    17   ar
    25    16    21    2
    26    17    18   ar
    27    17    23    1
    28    18    19   ar
    29    18    22    2
    30    19    20   ar
    31     6     7    1
    32     6    11    1
    33     7     8    1
    34     7     9    1
    35     8    13    1
    36     9    10    1
    37     9    12    1
    38    10    11    1
    39    10     5    1
    40    12    14    1
    41     5     4    1
    42     4     1    1
    43     1     2    2
    44     1     3    1
    45     1    24    1
    46    24    25    1
    47    25    26    2
    48    25    27    1
