@<TRIPOS>MOLECULE
*****
 43 45 0 0 0
SMALL
GASTEIGER

@<TRIPOS>ATOM
      1 P          23.0160   71.4494   -2.3444 P.3     1  UNL1        0.2189
      2 O          22.8324   73.0460   -2.5349 O.co2   1  UNL1       -0.4371
      3 O          24.2230   70.8656   -3.0182 O.2     1  UNL1       -0.5170
      4 O          21.5903   70.8370   -2.8030 O.3     1  UNL1       -0.3112
      5 C          20.9400   71.4049   -3.9251 C.3     1  UNL1        0.1811
      6 O          18.7823   71.9655   -4.8241 O.3     1  UNL1       -0.3308
      7 O          17.6303   70.5845   -2.4247 O.3     1  UNL1       -0.3794
      8 O          17.3544   68.7066   -4.3827 O.3     1  UNL1       -0.3779
      9 C          18.7942   70.2565   -3.1839 C.3     1  UNL1        0.1713
     10 C          18.3989   69.6482   -4.5128 C.3     1  UNL1        0.1895
     11 C          19.4567   71.5583   -3.6139 C.3     1  UNL1        0.1764
     12 C          17.9856   70.8736   -5.3101 C.3     1  UNL1        0.2383
     13 H          17.1898   69.7684   -2.1388 H       1  UNL1        0.2105
     14 H          17.6675   67.9457   -3.8679 H       1  UNL1        0.2106
     15 O          15.9461   70.5721   -7.2405 O.2     1  UNL1       -0.2464
     16 O          18.9966   70.2753  -10.6829 O.2     1  UNL1       -0.2670
     17 N          18.2187   70.7157   -6.7178 N.ar    1  UNL1       -0.2551
     18 N          17.4674   70.4235   -8.9530 N.ar    1  UNL1       -0.2743
     19 C          17.1241   70.5715   -7.6028 C.ar    1  UNL1        0.3323
     20 C          19.5187   70.7064   -7.2087 C.ar    1  UNL1        0.0869
     21 C          19.8302   70.5645   -8.4985 C.ar    1  UNL1        0.0795
     22 C          18.7449   70.4074   -9.4890 C.ar    1  UNL1        0.2626
     23 H          16.7223   70.3194   -9.5881 H       1  UNL1        0.1734
     24 O          22.9887   71.2701   -0.7382 O.3     1  UNL1       -0.2703
     25 P          21.8039   71.5056    0.3362 P.3     1  UNL1        0.2208
     26 O          21.5922   70.0362    0.9814 O.co2   1  UNL1       -0.4371
     27 O          20.5586   72.1118   -0.2434 O.2     1  UNL1       -0.5170
     28 O          22.4853   72.3729    1.5134 O.3     1  UNL1       -0.2858
     29 O          24.3239   71.4998    2.7245 O.3     1  UNL1       -0.3226
     30 O          23.0351   74.5289    5.2208 O.3     1  UNL1       -0.3794
     31 O          21.1059   72.7820    3.8937 O.3     1  UNL1       -0.3775
     32 O          25.4272   74.8857    3.6080 O.3     1  UNL1       -0.3792
     33 C          23.2674   73.8812    3.9700 C.3     1  UNL1        0.1718
     34 C          22.5098   72.5537    3.9326 C.3     1  UNL1        0.1968
     35 C          24.7724   73.6391    3.8352 C.3     1  UNL1        0.1723
     36 C          22.9141   71.7273    2.7110 C.3     1  UNL1        0.2706
     37 C          25.0842   72.7048    2.6697 C.3     1  UNL1        0.1830
     38 H          22.0849   74.6929    5.3286 H       1  UNL1        0.2105
     39 H          20.8424   73.3061    4.6659 H       1  UNL1        0.2106
     40 H          25.2367   75.4897    4.3427 H       1  UNL1        0.2106
     41 O          26.5743   70.9236    2.3405 O.co2   1  UNL1       -0.5466
     42 O          27.4489   72.8819    3.1147 O.co2   1  UNL1       -0.5466
     43 C          26.4940   72.2157    2.7444 C.2     1  UNL1        0.0799
@<TRIPOS>UNITY_ATOM_ATTR
2 1
charge -1
26 1
charge -1
41 1
charge -1
@<TRIPOS>BOND
     1     1     4    1
     2     1    24    1
     3     1     2    1
     4     1     3    2
     5    25    28    1
     6    25    24    1
     7    25    26    1
     8    25    27    2
     9     6    11    1
    10     6    12    1
    11    29    36    1
    12    29    37    1
    13     7     9    1
    14     7    13    1
    15     8    10    1
    16     8    14    1
    17     4     5    1
    18    28    36    1
    19    30    33    1
    20    30    38    1
    21    31    34    1
    22    31    39    1
    23    32    35    1
    24    32    40    1
    25    41    43   ar
    26    15    19    2
    27    42    43   ar
    28    16    22    2
    29    17    12    1
    30    17    19   ar
    31    17    20   ar
    32    18    19   ar
    33    18    22   ar
    34    18    23    1
    35     9    10    1
    36     9    11    1
    37    10    12    1
    38    11     5    1
    39    33    34    1
    40    33    35    1
    41    34    36    1
    42    35    37    1
    43    37    43    1
    44    20    21   ar
    45    21    22   ar
@<TRIPOS>MOLECULE
*****
 43 45 0 0 0
SMALL
GASTEIGER

@<TRIPOS>ATOM
      1 P          23.6491   72.2940   -3.6141 P.3     1  UNL1        0.2189
      2 O          24.7177   73.5050   -3.7157 O.co2   1  UNL1       -0.4371
      3 O          24.1975   71.0095   -3.0654 O.2     1  UNL1       -0.5170
      4 O          23.0154   72.2094   -5.1004 O.3     1  UNL1       -0.3112
      5 C          21.6060   72.1937   -5.2346 C.3     1  UNL1        0.1811
      6 O          20.4394   70.3236   -6.1935 O.3     1  UNL1       -0.3308
      7 O          20.5495   71.8234   -8.7877 O.3     1  UNL1       -0.3794
      8 O          17.9986   72.2839   -7.9410 O.3     1  UNL1       -0.3779
      9 C          20.3819   72.3238   -7.4611 C.3     1  UNL1        0.1713
     10 C          18.9836   72.0276   -6.9619 C.3     1  UNL1        0.1895
     11 C          21.2388   71.4786   -6.5285 C.3     1  UNL1        0.1764
     12 C          19.0822   70.5547   -6.6031 C.3     1  UNL1        0.2383
     13 H          20.0114   72.3478   -9.4018 H       1  UNL1        0.2105
     14 H          17.9748   73.2346   -8.1345 H       1  UNL1        0.2106
     15 O          16.3980   69.7450   -6.9441 O.2     1  UNL1       -0.2464
     16 O          15.7985   69.1879   -2.4082 O.2     1  UNL1       -0.2670
     17 N          18.2020   70.1924   -5.5284 N.ar    1  UNL1       -0.2551
     18 N          16.1017   69.4693   -4.6846 N.ar    1  UNL1       -0.2743
     19 C          16.8714   69.8002   -5.8075 C.ar    1  UNL1        0.3323
     20 C          18.6588   70.2258   -4.2165 C.ar    1  UNL1        0.0869
     21 C          17.9133   69.9075   -3.1565 C.ar    1  UNL1        0.0795
     22 C          16.5114   69.4879   -3.3611 C.ar    1  UNL1        0.2626
     23 H          15.1713   69.1951   -4.8536 H       1  UNL1        0.1734
     24 O          22.4499   72.9403   -2.7440 O.3     1  UNL1       -0.2703
     25 P          21.7248   72.4297   -1.3923 P.3     1  UNL1        0.2208
     26 O          21.4240   70.8693   -1.7007 O.co2   1  UNL1       -0.4371
     27 O          20.5140   73.2279   -1.0038 O.2     1  UNL1       -0.5170
     28 O          22.8959   72.4071   -0.2830 O.3     1  UNL1       -0.2858
     29 O          24.3571   71.1737    1.1143 O.3     1  UNL1       -0.3226
     30 O          21.4664   72.4032    3.7976 O.3     1  UNL1       -0.3794
     31 O          20.7112   71.4439    1.1436 O.3     1  UNL1       -0.3775
     32 O          24.0656   73.7045    3.7549 O.3     1  UNL1       -0.3792
     33 C          22.2985   72.5030    2.6419 C.3     1  UNL1        0.1718
     34 C          22.0142   71.3297    1.7038 C.3     1  UNL1        0.1968
     35 C          23.7568   72.4729    3.1051 C.3     1  UNL1        0.1723
     36 C          23.0402   71.2738    0.5711 C.3     1  UNL1        0.2706
     37 C          24.7112   72.2893    1.9287 C.3     1  UNL1        0.1830
     38 H          20.5347   72.4203    3.5279 H       1  UNL1        0.2105
     39 H          20.0552   71.4801    1.8568 H       1  UNL1        0.2106
     40 H          23.4651   73.8335    4.5055 H       1  UNL1        0.2106
     41 O          26.4277   70.6918    1.9874 O.co2   1  UNL1       -0.5466
     42 O          26.7979   72.6570    3.0828 O.co2   1  UNL1       -0.5466
     43 C          26.0811   71.9337    2.4076 C.2     1  UNL1        0.0799
@<TRIPOS>UNITY_ATOM_ATTR
2 1
charge -1
26 1
charge -1
41 1
charge -1
@<TRIPOS>BOND
     1     1     4    1
     2     1    24    1
     3     1     2    1
     4     1     3    2
     5    25    28    1
     6    25    24    1
     7    25    26    1
     8    25    27    2
     9     6    11    1
    10     6    12    1
    11    29    36    1
    12    29    37    1
    13     7     9    1
    14     7    13    1
    15     8    10    1
    16     8    14    1
    17     4     5    1
    18    28    36    1
    19    30    33    1
    20    30    38    1
    21    31    34    1
    22    31    39    1
    23    32    35    1
    24    32    40    1
    25    41    43   ar
    26    15    19    2
    27    42    43   ar
    28    16    22    2
    29    17    12    1
    30    17    19   ar
    31    17    20   ar
    32    18    19   ar
    33    18    22   ar
    34    18    23    1
    35     9    10    1
    36     9    11    1
    37    10    12    1
    38    11     5    1
    39    33    34    1
    40    33    35    1
    41    34    36    1
    42    35    37    1
    43    37    43    1
    44    20    21   ar
    45    21    22   ar
@<TRIPOS>MOLECULE
*****
 43 45 0 0 0
SMALL
GASTEIGER

@<TRIPOS>ATOM
      1 P          23.3443   71.8864   -3.0657 P.3     1  UNL1        0.2189
      2 O          24.0567   73.2731   -3.4999 O.co2   1  UNL1       -0.4371
      3 O          24.2638   70.7043   -2.9708 O.2     1  UNL1       -0.5170
      4 O          22.1149   71.7384   -4.1073 O.3     1  UNL1       -0.3112
      5 C          21.3067   72.8720   -4.3646 C.3     1  UNL1        0.1811
      6 O          20.6902   71.9474   -6.4960 O.3     1  UNL1       -0.3308
      7 O          20.7890   74.7585   -7.5350 O.3     1  UNL1       -0.3794
      8 O          18.1157   74.3434   -7.1928 O.3     1  UNL1       -0.3779
      9 C          20.3601   74.2811   -6.2596 C.3     1  UNL1        0.1713
     10 C          19.0075   73.6113   -6.3785 C.3     1  UNL1        0.1895
     11 C          21.2590   73.1164   -5.8674 C.3     1  UNL1        0.1764
     12 C          19.3743   72.2640   -6.9771 C.3     1  UNL1        0.2383
     13 H          20.2293   75.5032   -7.8068 H       1  UNL1        0.2105
     14 H          17.9130   75.1923   -6.7684 H       1  UNL1        0.2106
     15 O          17.5504   70.9877   -8.7152 O.2     1  UNL1       -0.2464
     16 O          15.9485   68.2836   -5.3438 O.2     1  UNL1       -0.2670
     17 N          18.4689   71.2232   -6.5799 N.ar    1  UNL1       -0.2551
     18 N          16.7536   69.6428   -7.0342 N.ar    1  UNL1       -0.2743
     19 C          17.5932   70.6484   -7.5311 C.ar    1  UNL1        0.3323
     20 C          18.4554   70.7810   -5.2626 C.ar    1  UNL1        0.0869
     21 C          17.6494   69.8215   -4.8038 C.ar    1  UNL1        0.0795
     22 C          16.7032   69.1697   -5.7329 C.ar    1  UNL1        0.2626
     23 H          16.1335   69.2290   -7.6773 H       1  UNL1        0.1734
     24 O          22.6039   72.2763   -1.6827 O.3     1  UNL1       -0.2703
     25 P          22.6560   71.5888   -0.2204 P.3     1  UNL1        0.2208
     26 O          24.1850   71.0689   -0.1105 O.co2   1  UNL1       -0.4371
     27 O          21.6228   70.5211   -0.0048 O.2     1  UNL1       -0.5170
     28 O          22.5700   72.8226    0.8152 O.3     1  UNL1       -0.2858
     29 O          23.8276   74.5249    1.8782 O.3     1  UNL1       -0.3226
     30 O          22.3960   72.3922    5.1140 O.3     1  UNL1       -0.3794
     31 O          23.3948   71.0002    2.7477 O.3     1  UNL1       -0.3775
     32 O          21.2134   74.9546    4.4167 O.3     1  UNL1       -0.3792
     33 C          22.3658   72.9327    3.7931 C.3     1  UNL1        0.1718
     34 C          23.5511   72.3932    2.9921 C.3     1  UNL1        0.1968
     35 C          22.4477   74.4568    3.9038 C.3     1  UNL1        0.1723
     36 C          23.6842   73.1218    1.6541 C.3     1  UNL1        0.2706
     37 C          22.7065   75.1010    2.5448 C.3     1  UNL1        0.1830
     38 H          22.3451   71.4244    5.0688 H       1  UNL1        0.2105
     39 H          23.3094   70.5318    3.5925 H       1  UNL1        0.2106
     40 H          21.0368   74.5523    5.2814 H       1  UNL1        0.2106
     41 O          23.2122   77.1364    1.4946 O.co2   1  UNL1       -0.5466
     42 O          23.3165   77.0869    3.7719 O.co2   1  UNL1       -0.5466
     43 C          23.1091   76.5310    2.7037 C.2     1  UNL1        0.0799
@<TRIPOS>UNITY_ATOM_ATTR
2 1
charge -1
26 1
charge -1
41 1
charge -1
@<TRIPOS>BOND
     1     1     4    1
     2     1    24    1
     3     1     2    1
     4     1     3    2
     5    25    28    1
     6    25    24    1
     7    25    26    1
     8    25    27    2
     9     6    11    1
    10     6    12    1
    11    29    36    1
    12    29    37    1
    13     7     9    1
    14     7    13    1
    15     8    10    1
    16     8    14    1
    17     4     5    1
    18    28    36    1
    19    30    33    1
    20    30    38    1
    21    31    34    1
    22    31    39    1
    23    32    35    1
    24    32    40    1
    25    41    43   ar
    26    15    19    2
    27    42    43   ar
    28    16    22    2
    29    17    12    1
    30    17    19   ar
    31    17    20   ar
    32    18    19   ar
    33    18    22   ar
    34    18    23    1
    35     9    10    1
    36     9    11    1
    37    10    12    1
    38    11     5    1
    39    33    34    1
    40    33    35    1
    41    34    36    1
    42    35    37    1
    43    37    43    1
    44    20    21   ar
    45    21    22   ar
@<TRIPOS>MOLECULE
*****
 43 45 0 0 0
SMALL
GASTEIGER

@<TRIPOS>ATOM
      1 P          22.9034   71.4410   -2.8813 P.3     1  UNL1        0.2189
      2 O          24.3043   70.6719   -3.1354 O.co2   1  UNL1       -0.4371
      3 O          21.7271   70.5460   -2.6222 O.2     1  UNL1       -0.5170
      4 O          22.7666   72.4300   -4.1546 O.3     1  UNL1       -0.3112
      5 C          21.4824   72.6408   -4.7122 C.3     1  UNL1        0.1811
      6 O          20.6257   70.6624   -5.7750 O.3     1  UNL1       -0.3308
      7 O          21.0265   72.1086   -8.3710 O.3     1  UNL1       -0.3794
      8 O          18.3470   72.3813   -7.9444 O.3     1  UNL1       -0.3779
      9 C          20.6158   72.6231   -7.1040 C.3     1  UNL1        0.1713
     10 C          19.1831   72.2266   -6.8168 C.3     1  UNL1        0.1895
     11 C          21.3777   71.8702   -6.0220 C.3     1  UNL1        0.1764
     12 C          19.3357   70.7747   -6.3968 C.3     1  UNL1        0.2383
     13 H          20.5529   72.5744   -9.0784 H       1  UNL1        0.2105
     14 H          18.2817   73.3226   -8.1718 H       1  UNL1        0.2106
     15 O          16.7718   69.8359   -7.1187 O.2     1  UNL1       -0.2464
     16 O          15.5509   69.2367   -2.7148 O.2     1  UNL1       -0.2670
     17 N          18.3282   70.3666   -5.4592 N.ar    1  UNL1       -0.2551
     18 N          16.1658   69.5393   -4.9246 N.ar    1  UNL1       -0.2743
     19 C          17.0727   69.9107   -5.9259 C.ar    1  UNL1        0.3323
     20 C          18.5884   70.4185   -4.0951 C.ar    1  UNL1        0.0869
     21 C          17.7140   70.0610   -3.1526 C.ar    1  UNL1        0.0795
     22 C          16.3785   69.5740   -3.5560 C.ar    1  UNL1        0.2626
     23 H          15.2841   69.2205   -5.2252 H       1  UNL1        0.1734
     24 O          23.2590   72.4528   -1.6719 O.3     1  UNL1       -0.2703
     25 P          22.9338   72.3723   -0.0903 P.3     1  UNL1        0.2208
     26 O          22.9986   70.7850    0.2203 O.co2   1  UNL1       -0.4371
     27 O          21.6430   73.0279    0.3071 O.2     1  UNL1       -0.5170
     28 O          24.2432   72.9817    0.6283 O.3     1  UNL1       -0.2858
     29 O          24.8792   74.9544   -0.5176 O.3     1  UNL1       -0.3226
     30 O          20.9094   75.7191    0.3332 O.3     1  UNL1       -0.3794
     31 O          22.6417   74.4841    2.3353 O.3     1  UNL1       -0.3775
     32 O          21.7075   74.9776   -2.3620 O.3     1  UNL1       -0.3792
     33 C          22.0429   74.9087    0.0229 C.3     1  UNL1        0.1718
     34 C          23.0980   75.0635    1.1185 C.3     1  UNL1        0.1968
     35 C          22.6019   75.3733   -1.3238 C.3     1  UNL1        0.1723
     36 C          24.4120   74.3957    0.7109 C.3     1  UNL1        0.2706
     37 C          23.9716   74.7598   -1.6000 C.3     1  UNL1        0.1830
     38 H          20.5372   75.4421    1.1853 H       1  UNL1        0.2105
     39 H          21.8080   74.9030    2.5997 H       1  UNL1        0.2106
     40 H          20.8318   75.3613   -2.1981 H       1  UNL1        0.2106
     41 O          24.0974   76.6821   -2.9381 O.co2   1  UNL1       -0.5466
     42 O          25.5702   75.0014   -3.3909 O.co2   1  UNL1       -0.5466
     43 C          24.6473   75.4594   -2.7342 C.2     1  UNL1        0.0799
@<TRIPOS>UNITY_ATOM_ATTR
2 1
charge -1
26 1
charge -1
41 1
charge -1
@<TRIPOS>BOND
     1     1     4    1
     2     1    24    1
     3     1     2    1
     4     1     3    2
     5    25    28    1
     6    25    24    1
     7    25    26    1
     8    25    27    2
     9     6    11    1
    10     6    12    1
    11    29    36    1
    12    29    37    1
    13     7     9    1
    14     7    13    1
    15     8    10    1
    16     8    14    1
    17     4     5    1
    18    28    36    1
    19    30    33    1
    20    30    38    1
    21    31    34    1
    22    31    39    1
    23    32    35    1
    24    32    40    1
    25    41    43   ar
    26    15    19    2
    27    42    43   ar
    28    16    22    2
    29    17    12    1
    30    17    19   ar
    31    17    20   ar
    32    18    19   ar
    33    18    22   ar
    34    18    23    1
    35     9    10    1
    36     9    11    1
    37    10    12    1
    38    11     5    1
    39    33    34    1
    40    33    35    1
    41    34    36    1
    42    35    37    1
    43    37    43    1
    44    20    21   ar
    45    21    22   ar
@<TRIPOS>MOLECULE
*****
 43 45 0 0 0
SMALL
GASTEIGER

@<TRIPOS>ATOM
      1 P          21.6639   72.4876   -5.7936 P.3     1  UNL1        0.2189
      2 O          20.9652   73.8945   -6.1824 O.co2   1  UNL1       -0.4371
      3 O          23.1489   72.4382   -6.0039 O.2     1  UNL1       -0.5170
      4 O          20.8019   71.3873   -6.6086 O.3     1  UNL1       -0.3112
      5 C          20.1372   71.7904   -7.7919 C.3     1  UNL1        0.1811
      6 O          18.8263   69.8402   -7.2860 O.3     1  UNL1       -0.3308
      7 O          17.9668   69.9013  -10.1581 O.3     1  UNL1       -0.3794
      8 O          15.8292   71.0036   -8.8728 O.3     1  UNL1       -0.3779
      9 C          18.2280   70.9881   -9.2697 C.3     1  UNL1        0.1713
     10 C          17.1000   71.1307   -8.2700 C.3     1  UNL1        0.1895
     11 C          19.3970   70.5946   -8.3771 C.3     1  UNL1        0.1764
     12 C          17.3994   70.0056   -7.2941 C.3     1  UNL1        0.2383
     13 H          17.2234   70.1294  -10.7387 H       1  UNL1        0.2105
     14 H          15.6862   71.7433   -9.4847 H       1  UNL1        0.2106
     15 O          16.3570   68.0941   -5.4952 O.2     1  UNL1       -0.2464
     16 O          15.7303   71.2621   -2.2066 O.2     1  UNL1       -0.2670
     17 N          16.9563   70.3036   -5.9615 N.ar    1  UNL1       -0.2551
     18 N          16.0449   69.6739   -3.8593 N.ar    1  UNL1       -0.2743
     19 C          16.4488   69.2703   -5.1388 C.ar    1  UNL1        0.3323
     20 C          17.0282   71.6057   -5.4816 C.ar    1  UNL1        0.0869
     21 C          16.6395   71.9751   -4.2597 C.ar    1  UNL1        0.0795
     22 C          16.0964   70.9563   -3.3374 C.ar    1  UNL1        0.2626
     23 H          15.6862   68.9724   -3.2690 H       1  UNL1        0.1734
     24 O          21.1924   72.2586   -4.2645 O.3     1  UNL1       -0.2703
     25 P          20.5794   70.9575   -3.5263 P.3     1  UNL1        0.2208
     26 O          21.8130   70.4309   -2.6200 O.co2   1  UNL1       -0.4371
     27 O          20.0154   69.9274   -4.4616 O.2     1  UNL1       -0.5170
     28 O          19.5188   71.5506   -2.4653 O.3     1  UNL1       -0.2858
     29 O          20.6992   71.8915   -0.4406 O.3     1  UNL1       -0.3226
     30 O          22.9375   74.1196   -3.1041 O.3     1  UNL1       -0.3794
     31 O          20.0186   74.1847   -3.2055 O.3     1  UNL1       -0.3775
     32 O          23.9092   71.5394   -2.1825 O.3     1  UNL1       -0.3792
     33 C          22.0963   73.0429   -2.6902 C.3     1  UNL1        0.1718
     34 C          20.7779   73.6007   -2.1534 C.3     1  UNL1        0.1968
     35 C          22.8294   72.2637   -1.5960 C.3     1  UNL1        0.1723
     36 C          19.9475   72.5003   -1.4912 C.3     1  UNL1        0.2706
     37 C          21.9001   71.2743   -0.8988 C.3     1  UNL1        0.1830
     38 H          22.4922   74.6292   -3.7993 H       1  UNL1        0.2105
     39 H          20.5396   74.8836   -3.6303 H       1  UNL1        0.2106
     40 H          24.5081   72.1576   -2.6297 H       1  UNL1        0.2106
     41 O          21.5777   70.2060    1.1642 O.co2   1  UNL1       -0.5466
     42 O          23.7057   70.8355    0.6403 O.co2   1  UNL1       -0.5466
     43 C          22.5179   70.7648    0.3625 C.2     1  UNL1        0.0799
@<TRIPOS>UNITY_ATOM_ATTR
2 1
charge -1
26 1
charge -1
41 1
charge -1
@<TRIPOS>BOND
     1     1     4    1
     2     1    24    1
     3     1     2    1
     4     1     3    2
     5    25    28    1
     6    25    24    1
     7    25    26    1
     8    25    27    2
     9     6    11    1
    10     6    12    1
    11    29    36    1
    12    29    37    1
    13     7     9    1
    14     7    13    1
    15     8    10    1
    16     8    14    1
    17     4     5    1
    18    28    36    1
    19    30    33    1
    20    30    38    1
    21    31    34    1
    22    31    39    1
    23    32    35    1
    24    32    40    1
    25    41    43   ar
    26    15    19    2
    27    42    43   ar
    28    16    22    2
    29    17    12    1
    30    17    19   ar
    31    17    20   ar
    32    18    19   ar
    33    18    22   ar
    34    18    23    1
    35     9    10    1
    36     9    11    1
    37    10    12    1
    38    11     5    1
    39    33    34    1
    40    33    35    1
    41    34    36    1
    42    35    37    1
    43    37    43    1
    44    20    21   ar
    45    21    22   ar
@<TRIPOS>MOLECULE
*****
 43 45 0 0 0
SMALL
GASTEIGER

@<TRIPOS>ATOM
      1 P          22.3810   71.4108   -2.4411 P.3     1  UNL1        0.2189
      2 O          21.8460   72.6981   -3.2631 O.co2   1  UNL1       -0.4371
      3 O          23.7052   70.8729   -2.8980 O.2     1  UNL1       -0.5170
      4 O          21.1426   70.3711   -2.4985 O.3     1  UNL1       -0.3112
      5 C          20.4410   70.2220   -3.7192 C.3     1  UNL1        0.1811
      6 O          18.6843   71.4866   -4.7643 O.3     1  UNL1       -0.3308
      7 O          16.8544   70.2865   -2.7142 O.3     1  UNL1       -0.3794
      8 O          16.3423   68.7768   -4.9266 O.3     1  UNL1       -0.3779
      9 C          17.9742   69.7011   -3.3791 C.3     1  UNL1        0.1713
     10 C          17.6184   69.3711   -4.8133 C.3     1  UNL1        0.1895
     11 C          19.0336   70.7806   -3.5540 C.3     1  UNL1        0.1764
     12 C          17.6891   70.7355   -5.4777 C.3     1  UNL1        0.2383
     13 H          16.1641   69.6157   -2.5912 H       1  UNL1        0.2105
     14 H          16.3489   67.9108   -4.4885 H       1  UNL1        0.2106
     15 O          15.8906   70.2389   -7.5979 O.2     1  UNL1       -0.2464
     16 O          19.2553   70.4398  -10.7415 O.2     1  UNL1       -0.2670
     17 N          18.0683   70.6529   -6.8598 N.ar    1  UNL1       -0.2551
     18 N          17.5683   70.3384   -9.1614 N.ar    1  UNL1       -0.2743
     19 C          17.0869   70.3991   -7.8470 C.ar    1  UNL1        0.3323
     20 C          19.3979   70.8239   -7.2257 C.ar    1  UNL1        0.0869
     21 C          19.8416   70.7634   -8.4828 C.ar    1  UNL1        0.0795
     22 C          18.8808   70.5013   -9.5743 C.ar    1  UNL1        0.2626
     23 H          16.9039   70.1608   -9.8660 H       1  UNL1        0.1734
     24 O          22.3548   71.9227   -0.9080 O.3     1  UNL1       -0.2703
     25 P          23.5567   72.2419    0.1251 P.3     1  UNL1        0.2208
     26 O          24.1743   73.6264   -0.4423 O.co2   1  UNL1       -0.4371
     27 O          24.5569   71.1314    0.2682 O.2     1  UNL1       -0.5170
     28 O          22.8173   72.6579    1.4972 O.3     1  UNL1       -0.2858
     29 O          21.4284   74.3496    2.4017 O.3     1  UNL1       -0.3226
     30 O          24.5072   74.2290    5.1538 O.3     1  UNL1       -0.3794
     31 O          25.0727   74.0786    2.2916 O.3     1  UNL1       -0.3775
     32 O          21.9336   73.0366    5.7904 O.3     1  UNL1       -0.3792
     33 C          23.6040   73.6970    4.1847 C.3     1  UNL1        0.1718
     34 C          23.8068   74.4127    2.8490 C.3     1  UNL1        0.1968
     35 C          22.1785   73.9175    4.6956 C.3     1  UNL1        0.1723
     36 C          22.7090   74.0348    1.8536 C.3     1  UNL1        0.2706
     37 C          21.1470   73.6398    3.6059 C.3     1  UNL1        0.1830
     38 H          25.4198   74.1003    4.8505 H       1  UNL1        0.2105
     39 H          25.7740   74.3154    2.9181 H       1  UNL1        0.2106
     40 H          22.5835   73.2029    6.4909 H       1  UNL1        0.2106
     41 O          18.9970   74.2747    2.9158 O.co2   1  UNL1       -0.5466
     42 O          19.4723   74.4573    5.1384 O.co2   1  UNL1       -0.5466
     43 C          19.8050   74.1656    3.9995 C.2     1  UNL1        0.0799
@<TRIPOS>UNITY_ATOM_ATTR
2 1
charge -1
26 1
charge -1
41 1
charge -1
@<TRIPOS>BOND
     1     1     4    1
     2     1    24    1
     3     1     2    1
     4     1     3    2
     5    25    28    1
     6    25    24    1
     7    25    26    1
     8    25    27    2
     9     6    11    1
    10     6    12    1
    11    29    36    1
    12    29    37    1
    13     7     9    1
    14     7    13    1
    15     8    10    1
    16     8    14    1
    17     4     5    1
    18    28    36    1
    19    30    33    1
    20    30    38    1
    21    31    34    1
    22    31    39    1
    23    32    35    1
    24    32    40    1
    25    41    43   ar
    26    15    19    2
    27    42    43   ar
    28    16    22    2
    29    17    12    1
    30    17    19   ar
    31    17    20   ar
    32    18    19   ar
    33    18    22   ar
    34    18    23    1
    35     9    10    1
    36     9    11    1
    37    10    12    1
    38    11     5    1
    39    33    34    1
    40    33    35    1
    41    34    36    1
    42    35    37    1
    43    37    43    1
    44    20    21   ar
    45    21    22   ar
@<TRIPOS>MOLECULE
*****
 43 45 0 0 0
SMALL
GASTEIGER

@<TRIPOS>ATOM
      1 P          20.7170   73.6744   -4.1502 P.3     1  UNL1        0.2189
      2 O          19.9676   75.0701   -3.8199 O.co2   1  UNL1       -0.4371
      3 O          20.7335   73.2920   -5.6012 O.2     1  UNL1       -0.5170
      4 O          20.0166   72.6115   -3.1514 O.3     1  UNL1       -0.3112
      5 C          19.4353   71.4452   -3.7050 C.3     1  UNL1        0.1811
      6 O          17.6293   72.0639   -5.1654 O.3     1  UNL1       -0.3308
      7 O          15.8157   70.7382   -3.1792 O.3     1  UNL1       -0.3794
      8 O          16.0329   68.8537   -5.1382 O.3     1  UNL1       -0.3779
      9 C          17.1332   70.3688   -3.5870 C.3     1  UNL1        0.1713
     10 C          17.1018   69.7620   -4.9738 C.3     1  UNL1        0.1895
     11 C          17.9295   71.6462   -3.8161 C.3     1  UNL1        0.1764
     12 C          16.9639   70.9929   -5.8535 C.3     1  UNL1        0.2383
     13 H          15.2878   69.9383   -3.0269 H       1  UNL1        0.2105
     14 H          16.1672   68.0879   -4.5574 H       1  UNL1        0.2106
     15 O          15.5289   70.6074   -8.2553 O.2     1  UNL1       -0.2464
     16 O          19.4019   70.3270  -10.7382 O.2     1  UNL1       -0.2670
     17 N          17.5722   70.8165   -7.1419 N.ar    1  UNL1       -0.2551
     18 N          17.4593   70.4671   -9.4895 N.ar    1  UNL1       -0.2743
     19 C          16.7607   70.6299   -8.2859 C.ar    1  UNL1        0.3323
     20 C          18.9564   70.8310   -7.2632 C.ar    1  UNL1        0.0869
     21 C          19.6078   70.6746   -8.4173 C.ar    1  UNL1        0.0795
     22 C          18.8342   70.4735   -9.6601 C.ar    1  UNL1        0.2626
     23 H          16.9158   70.3336  -10.2995 H       1  UNL1        0.1734
     24 O          22.1786   73.8827   -3.4922 O.3     1  UNL1       -0.2703
     25 P          23.3178   72.8135   -3.0765 P.3     1  UNL1        0.2208
     26 O          24.4937   73.0880   -4.1545 O.co2   1  UNL1       -0.4371
     27 O          22.8400   71.3910   -3.0313 O.2     1  UNL1       -0.5170
     28 O          23.9080   73.3661   -1.6805 O.3     1  UNL1       -0.2858
     29 O          22.1830   73.0544   -0.0879 O.3     1  UNL1       -0.3226
     30 O          25.2351   74.5501    2.2605 O.3     1  UNL1       -0.3794
     31 O          24.6994   75.6910   -0.3749 O.3     1  UNL1       -0.3775
     32 O          24.5854   71.7177    2.3419 O.3     1  UNL1       -0.3792
     33 C          24.6648   73.8228    1.1726 C.3     1  UNL1        0.1718
     34 C          23.8461   74.7712    0.2963 C.3     1  UNL1        0.1968
     35 C          23.7677   72.7279    1.7542 C.3     1  UNL1        0.1723
     36 C          23.0361   73.9942   -0.7424 C.3     1  UNL1        0.2706
     37 C          22.9003   72.0866    0.6750 C.3     1  UNL1        0.1830
     38 H          25.8094   75.2516    1.9150 H       1  UNL1        0.2105
     39 H          25.2166   76.1873    0.2782 H       1  UNL1        0.2106
     40 H          25.1427   72.1129    3.0305 H       1  UNL1        0.2106
     41 O          21.5632   71.6731    2.5572 O.co2   1  UNL1       -0.5466
     42 O          21.2181   70.3577    0.7270 O.co2   1  UNL1       -0.5466
     43 C          21.8109   71.2675    1.2872 C.2     1  UNL1        0.0799
@<TRIPOS>UNITY_ATOM_ATTR
2 1
charge -1
26 1
charge -1
41 1
charge -1
@<TRIPOS>BOND
     1     1     4    1
     2     1    24    1
     3     1     2    1
     4     1     3    2
     5    25    28    1
     6    25    24    1
     7    25    26    1
     8    25    27    2
     9     6    11    1
    10     6    12    1
    11    29    36    1
    12    29    37    1
    13     7     9    1
    14     7    13    1
    15     8    10    1
    16     8    14    1
    17     4     5    1
    18    28    36    1
    19    30    33    1
    20    30    38    1
    21    31    34    1
    22    31    39    1
    23    32    35    1
    24    32    40    1
    25    41    43   ar
    26    15    19    2
    27    42    43   ar
    28    16    22    2
    29    17    12    1
    30    17    19   ar
    31    17    20   ar
    32    18    19   ar
    33    18    22   ar
    34    18    23    1
    35     9    10    1
    36     9    11    1
    37    10    12    1
    38    11     5    1
    39    33    34    1
    40    33    35    1
    41    34    36    1
    42    35    37    1
    43    37    43    1
    44    20    21   ar
    45    21    22   ar
@<TRIPOS>MOLECULE
*****
 43 45 0 0 0
SMALL
GASTEIGER

@<TRIPOS>ATOM
      1 P          21.4029   72.6742   -4.6876 P.3     1  UNL1        0.2189
      2 O          21.3967   74.2719   -4.4303 O.co2   1  UNL1       -0.4371
      3 O          22.2208   72.2249   -5.8628 O.2     1  UNL1       -0.5170
      4 O          19.8339   72.2818   -4.7324 O.3     1  UNL1       -0.3112
      5 C          19.3162   71.4477   -3.7122 C.3     1  UNL1        0.1811
      6 O          17.4478   71.7560   -5.1927 O.3     1  UNL1       -0.3308
      7 O          15.8641   70.1323   -3.2313 O.3     1  UNL1       -0.3794
      8 O          16.4215   68.3207   -5.1918 O.3     1  UNL1       -0.3779
      9 C          17.2298   69.9944   -3.6242 C.3     1  UNL1        0.1713
     10 C          17.3181   69.3971   -5.0126 C.3     1  UNL1        0.1895
     11 C          17.7994   71.3897   -3.8408 C.3     1  UNL1        0.1764
     12 C          16.9825   70.5902   -5.8911 C.3     1  UNL1        0.2383
     13 H          15.4786   69.2536   -3.0870 H       1  UNL1        0.2105
     14 H          16.6777   67.5864   -4.6112 H       1  UNL1        0.2106
     15 O          15.6238   70.6838   -8.3653 O.2     1  UNL1       -0.2464
     16 O          19.5555   70.3339  -10.7451 O.2     1  UNL1       -0.2670
     17 N          17.6265   70.5255   -7.1725 N.ar    1  UNL1       -0.2551
     18 N          17.5832   70.5084   -9.5482 N.ar    1  UNL1       -0.2743
     19 C          16.8519   70.5806   -8.3553 C.ar    1  UNL1        0.3323
     20 C          19.0092   70.4107   -7.2488 C.ar    1  UNL1        0.0869
     21 C          19.6922   70.3431   -8.3933 C.ar    1  UNL1        0.0795
     22 C          18.9581   70.3931   -9.6747 C.ar    1  UNL1        0.2626
     23 H          17.0655   70.5427  -10.3850 H       1  UNL1        0.1734
     24 O          21.8858   72.0793   -3.2643 O.3     1  UNL1       -0.2703
     25 P          23.3488   72.0232   -2.5787 P.3     1  UNL1        0.2208
     26 O          24.0042   73.4455   -2.9886 O.co2   1  UNL1       -0.4371
     27 O          24.1681   70.8284   -2.9726 O.2     1  UNL1       -0.5170
     28 O          23.0640   72.1473   -0.9957 O.3     1  UNL1       -0.2858
     29 O          24.3193   70.9761    0.6358 O.3     1  UNL1       -0.3226
     30 O          20.8284   71.7936    2.6884 O.3     1  UNL1       -0.3794
     31 O          20.7379   70.9157   -0.0965 O.3     1  UNL1       -0.3775
     32 O          23.2380   73.3234    3.2402 O.3     1  UNL1       -0.3792
     33 C          21.8676   72.0302    1.7386 C.3     1  UNL1        0.1718
     34 C          21.9015   70.8887    0.7221 C.3     1  UNL1        0.1968
     35 C          23.1940   72.1062    2.4980 C.3     1  UNL1        0.1723
     36 C          23.1401   70.9868   -0.1696 C.3     1  UNL1        0.2706
     37 C          24.3847   72.0731    1.5443 C.3     1  UNL1        0.1830
     38 H          19.9757   71.7415    2.2286 H       1  UNL1        0.2105
     39 H          19.9481   70.8541    0.4628 H       1  UNL1        0.2106
     40 H          22.4853   73.3571    3.8510 H       1  UNL1        0.2106
     41 O          26.0231   72.9123    2.9979 O.co2   1  UNL1       -0.5466
     42 O          26.2788   70.7666    2.2701 O.co2   1  UNL1       -0.5466
     43 C          25.6542   71.8166    2.2892 C.2     1  UNL1        0.0799
@<TRIPOS>UNITY_ATOM_ATTR
2 1
charge -1
26 1
charge -1
41 1
charge -1
@<TRIPOS>BOND
     1     1     4    1
     2     1    24    1
     3     1     2    1
     4     1     3    2
     5    25    28    1
     6    25    24    1
     7    25    26    1
     8    25    27    2
     9     6    11    1
    10     6    12    1
    11    29    36    1
    12    29    37    1
    13     7     9    1
    14     7    13    1
    15     8    10    1
    16     8    14    1
    17     4     5    1
    18    28    36    1
    19    30    33    1
    20    30    38    1
    21    31    34    1
    22    31    39    1
    23    32    35    1
    24    32    40    1
    25    41    43   ar
    26    15    19    2
    27    42    43   ar
    28    16    22    2
    29    17    12    1
    30    17    19   ar
    31    17    20   ar
    32    18    19   ar
    33    18    22   ar
    34    18    23    1
    35     9    10    1
    36     9    11    1
    37    10    12    1
    38    11     5    1
    39    33    34    1
    40    33    35    1
    41    34    36    1
    42    35    37    1
    43    37    43    1
    44    20    21   ar
    45    21    22   ar
@<TRIPOS>MOLECULE
*****
 43 45 0 0 0
SMALL
GASTEIGER

@<TRIPOS>ATOM
      1 P          22.7946   71.8807   -3.6675 P.3     1  UNL1        0.2189
      2 O          23.4446   72.9121   -4.7317 O.co2   1  UNL1       -0.4371
      3 O          23.7260   70.8158   -3.1672 O.2     1  UNL1       -0.5170
      4 O          21.4556   71.3524   -4.4064 O.3     1  UNL1       -0.3112
      5 C          20.6795   70.3553   -3.7678 C.3     1  UNL1        0.1811
      6 O          18.8450   71.5620   -4.7455 O.3     1  UNL1       -0.3308
      7 O          17.1514   70.3792   -2.5720 O.3     1  UNL1       -0.3794
      8 O          16.5507   68.8071   -4.7177 O.3     1  UNL1       -0.3779
      9 C          18.2450   69.7983   -3.2827 C.3     1  UNL1        0.1713
     10 C          17.8193   69.4271   -4.6874 C.3     1  UNL1        0.1895
     11 C          19.2724   70.8922   -3.5397 C.3     1  UNL1        0.1764
     12 C          17.8278   70.7759   -5.3863 C.3     1  UNL1        0.2383
     13 H          16.4818   69.6992   -2.3963 H       1  UNL1        0.2105
     14 H          16.5976   67.9523   -4.2604 H       1  UNL1        0.2106
     15 O          15.9043   70.3594   -7.4120 O.2     1  UNL1       -0.2464
     16 O          19.1161   70.3722  -10.7178 O.2     1  UNL1       -0.2670
     17 N          18.1338   70.6666   -6.7846 N.ar    1  UNL1       -0.2551
     18 N          17.5059   70.3652   -9.0565 N.ar    1  UNL1       -0.2743
     19 C          17.0935   70.4574   -7.7206 C.ar    1  UNL1        0.3323
     20 C          19.4507   70.7680   -7.2164 C.ar    1  UNL1        0.0869
     21 C          19.8284   70.6782   -8.4932 C.ar    1  UNL1        0.0795
     22 C          18.8030   70.4590   -9.5343 C.ar    1  UNL1        0.2626
     23 H          16.7996   70.2176   -9.7262 H       1  UNL1        0.1734
     24 O          22.2141   72.8606   -2.5205 O.3     1  UNL1       -0.2703
     25 P          22.7798   74.2551   -1.9297 P.3     1  UNL1        0.2208
     26 O          21.8643   75.3678   -2.6675 O.co2   1  UNL1       -0.4371
     27 O          24.2571   74.4482   -2.1149 O.2     1  UNL1       -0.5170
     28 O          22.2891   74.2778   -0.3931 O.3     1  UNL1       -0.2858
     29 O          22.8296   74.7715    1.8592 O.3     1  UNL1       -0.3226
     30 O          22.5640   70.6496    1.9426 O.3     1  UNL1       -0.3794
     31 O          23.8865   72.0036   -0.2827 O.3     1  UNL1       -0.3775
     32 O          20.4206   72.2725    3.0483 O.3     1  UNL1       -0.3792
     33 C          22.2407   71.9676    1.4994 C.3     1  UNL1        0.1718
     34 C          23.4913   72.6367    0.9287 C.3     1  UNL1        0.1968
     35 C          21.7172   72.7557    2.7022 C.3     1  UNL1        0.1723
     36 C          23.2419   74.1209    0.6567 C.3     1  UNL1        0.2706
     37 C          21.6150   74.2459    2.3900 C.3     1  UNL1        0.1830
     38 H          22.8991   70.1300    1.1949 H       1  UNL1        0.2105
     39 H          24.0462   71.0615   -0.1176 H       1  UNL1        0.2106
     40 H          20.4717   71.3250    3.2492 H       1  UNL1        0.2106
     41 O          21.1233   76.3281    3.3514 O.co2   1  UNL1       -0.5466
     42 O          21.5246   74.5934    4.7759 O.co2   1  UNL1       -0.5466
     43 C          21.4254   75.0385    3.6423 C.2     1  UNL1        0.0799
@<TRIPOS>UNITY_ATOM_ATTR
2 1
charge -1
26 1
charge -1
41 1
charge -1
@<TRIPOS>BOND
     1     1     4    1
     2     1    24    1
     3     1     2    1
     4     1     3    2
     5    25    28    1
     6    25    24    1
     7    25    26    1
     8    25    27    2
     9     6    11    1
    10     6    12    1
    11    29    36    1
    12    29    37    1
    13     7     9    1
    14     7    13    1
    15     8    10    1
    16     8    14    1
    17     4     5    1
    18    28    36    1
    19    30    33    1
    20    30    38    1
    21    31    34    1
    22    31    39    1
    23    32    35    1
    24    32    40    1
    25    41    43   ar
    26    15    19    2
    27    42    43   ar
    28    16    22    2
    29    17    12    1
    30    17    19   ar
    31    17    20   ar
    32    18    19   ar
    33    18    22   ar
    34    18    23    1
    35     9    10    1
    36     9    11    1
    37    10    12    1
    38    11     5    1
    39    33    34    1
    40    33    35    1
    41    34    36    1
    42    35    37    1
    43    37    43    1
    44    20    21   ar
    45    21    22   ar
@<TRIPOS>MOLECULE
*****
 43 45 0 0 0
SMALL
GASTEIGER

@<TRIPOS>ATOM
      1 P          22.7883   71.3070   -2.9254 P.3     1  UNL1        0.2189
      2 O          24.3410   70.8557   -2.9908 O.co2   1  UNL1       -0.4371
      3 O          21.7974   70.1852   -3.0326 O.2     1  UNL1       -0.5170
      4 O          22.6706   72.4588   -4.0556 O.3     1  UNL1       -0.3112
      5 C          21.4021   72.7160   -4.6294 C.3     1  UNL1        0.1811
      6 O          20.5592   70.7614   -5.7460 O.3     1  UNL1       -0.3308
      7 O          20.9447   72.2828   -8.3011 O.3     1  UNL1       -0.3794
      8 O          18.2638   72.5224   -7.8636 O.3     1  UNL1       -0.3779
      9 C          20.5319   72.7584   -7.0197 C.3     1  UNL1        0.1713
     10 C          19.1028   72.3428   -6.7418 C.3     1  UNL1        0.1895
     11 C          21.3014   71.9815   -5.9601 C.3     1  UNL1        0.1764
     12 C          19.2675   70.8809   -6.3628 C.3     1  UNL1        0.2383
     13 H          20.4665   72.7645   -8.9945 H       1  UNL1        0.2105
     14 H          18.1908   73.4691   -8.0644 H       1  UNL1        0.2106
     15 O          16.7617   69.8149   -7.1121 O.2     1  UNL1       -0.2464
     16 O          15.4978   69.2173   -2.7201 O.2     1  UNL1       -0.2670
     17 N          18.2646   70.4388   -5.4356 N.ar    1  UNL1       -0.2551
     18 N          16.1342   69.5193   -4.9239 N.ar    1  UNL1       -0.2743
     19 C          17.0393   69.9192   -5.9158 C.ar    1  UNL1        0.3323
     20 C          18.4998   70.5205   -4.0685 C.ar    1  UNL1        0.0869
     21 C          17.6274   70.1352   -3.1351 C.ar    1  UNL1        0.0795
     22 C          16.3226   69.5816   -3.5527 C.ar    1  UNL1        0.2626
     23 H          15.2732   69.1561   -5.2339 H       1  UNL1        0.1734
     24 O          22.7114   72.1436   -1.5445 O.3     1  UNL1       -0.2703
     25 P          21.5435   72.2503   -0.4317 P.3     1  UNL1        0.2208
     26 O          21.0830   70.7116   -0.2302 O.co2   1  UNL1       -0.4371
     27 O          20.4284   73.1868   -0.7973 O.2     1  UNL1       -0.5170
     28 O          22.3134   72.6272    0.9349 O.3     1  UNL1       -0.2858
     29 O          22.1400   73.8785    2.9382 O.3     1  UNL1       -0.3226
     30 O          25.5680   75.4556    1.2561 O.3     1  UNL1       -0.3794
     31 O          23.2312   74.8868   -0.4023 O.3     1  UNL1       -0.3775
     32 O          25.7569   73.6071    3.4918 O.3     1  UNL1       -0.3792
     33 C          24.6065   74.4409    1.5460 C.3     1  UNL1        0.1718
     34 C          23.2362   74.8693    1.0205 C.3     1  UNL1        0.1968
     35 C          24.5597   74.2537    3.0641 C.3     1  UNL1        0.1723
     36 C          22.1413   73.9209    1.5107 C.3     1  UNL1        0.2706
     37 C          23.3672   73.3990    3.4834 C.3     1  UNL1        0.1830
     38 H          25.6152   75.5919    0.2966 H       1  UNL1        0.2105
     39 H          23.9238   75.4864   -0.7203 H       1  UNL1        0.2106
     40 H          26.5236   74.1409    3.2309 H       1  UNL1        0.2106
     41 O          23.7245   74.6073    5.4617 O.co2   1  UNL1       -0.5466
     42 O          22.5108   72.6837    5.6227 O.co2   1  UNL1       -0.5466
     43 C          23.1391   73.4931    4.9570 C.2     1  UNL1        0.0799
@<TRIPOS>UNITY_ATOM_ATTR
2 1
charge -1
26 1
charge -1
41 1
charge -1
@<TRIPOS>BOND
     1     1     4    1
     2     1    24    1
     3     1     2    1
     4     1     3    2
     5    25    28    1
     6    25    24    1
     7    25    26    1
     8    25    27    2
     9     6    11    1
    10     6    12    1
    11    29    36    1
    12    29    37    1
    13     7     9    1
    14     7    13    1
    15     8    10    1
    16     8    14    1
    17     4     5    1
    18    28    36    1
    19    30    33    1
    20    30    38    1
    21    31    34    1
    22    31    39    1
    23    32    35    1
    24    32    40    1
    25    41    43   ar
    26    15    19    2
    27    42    43   ar
    28    16    22    2
    29    17    12    1
    30    17    19   ar
    31    17    20   ar
    32    18    19   ar
    33    18    22   ar
    34    18    23    1
    35     9    10    1
    36     9    11    1
    37    10    12    1
    38    11     5    1
    39    33    34    1
    40    33    35    1
    41    34    36    1
    42    35    37    1
    43    37    43    1
    44    20    21   ar
    45    21    22   ar
@<TRIPOS>MOLECULE
*****
 43 45 0 0 0
SMALL
GASTEIGER

@<TRIPOS>ATOM
      1 P          23.3958   71.8688   -3.2870 P.3     1  UNL1        0.2189
      2 O          24.1263   72.9740   -4.2163 O.co2   1  UNL1       -0.4371
      3 O          24.2752   70.7400   -2.8349 O.2     1  UNL1       -0.5170
      4 O          22.0905   71.4430   -4.1429 O.3     1  UNL1       -0.3112
      5 C          21.5768   72.3584   -5.0931 C.3     1  UNL1        0.1811
      6 O          20.5233   70.4487   -6.1034 O.3     1  UNL1       -0.3308
      7 O          20.7616   71.9256   -8.7022 O.3     1  UNL1       -0.3794
      8 O          18.1503   72.3264   -8.0263 O.3     1  UNL1       -0.3779
      9 C          20.4959   72.4342   -7.3949 C.3     1  UNL1        0.1713
     10 C          19.0764   72.1059   -6.9831 C.3     1  UNL1        0.1895
     11 C          21.3125   71.6212   -6.3996 C.3     1  UNL1        0.1764
     12 C          19.1898   70.6397   -6.6020 C.3     1  UNL1        0.2383
     13 H          20.2508   72.4295   -9.3556 H       1  UNL1        0.2105
     14 H          18.1145   73.2743   -8.2318 H       1  UNL1        0.2106
     15 O          16.5334   69.8207   -7.1014 O.2     1  UNL1       -0.2464
     16 O          15.6800   69.2238   -2.6115 O.2     1  UNL1       -0.2670
     17 N          18.2518   70.2646   -5.5820 N.ar    1  UNL1       -0.2551
     18 N          16.1106   69.5251   -4.8646 N.ar    1  UNL1       -0.2743
     19 C          16.9412   69.8687   -5.9393 C.ar    1  UNL1        0.3323
     20 C          18.6332   70.2894   -4.2460 C.ar    1  UNL1        0.0869
     21 C          17.8302   69.9591   -3.2326 C.ar    1  UNL1        0.0795
     22 C          16.4443   69.5348   -3.5199 C.ar    1  UNL1        0.2626
     23 H          15.1927   69.2481   -5.0884 H       1  UNL1        0.1734
     24 O          22.7713   72.7570   -2.0895 O.3     1  UNL1       -0.2703
     25 P          23.3616   73.1421   -0.6345 P.3     1  UNL1        0.2208
     26 O          24.3423   74.3902   -0.9518 O.co2   1  UNL1       -0.4371
     27 O          24.0242   72.0017    0.0827 O.2     1  UNL1       -0.5170
     28 O          22.1142   73.7944    0.1536 O.3     1  UNL1       -0.2858
     29 O          21.7267   75.8091    1.3367 O.3     1  UNL1       -0.3226
     30 O          19.8432   73.0388    3.7545 O.3     1  UNL1       -0.3794
     31 O          22.4409   72.4387    2.5602 O.3     1  UNL1       -0.3775
     32 O          18.2735   74.7958    2.0515 O.3     1  UNL1       -0.3792
     33 C          20.3068   73.5921    2.5229 C.3     1  UNL1        0.1718
     34 C          21.8295   73.7236    2.5619 C.3     1  UNL1        0.1968
     35 C          19.6581   74.9671    2.3483 C.3     1  UNL1        0.1723
     36 C          22.3408   74.5200    1.3606 C.3     1  UNL1        0.2706
     37 C          20.3077   75.7491    1.2103 C.3     1  UNL1        0.1830
     38 H          20.2424   72.1645    3.8870 H       1  UNL1        0.2105
     39 H          22.1207   71.9278    3.3196 H       1  UNL1        0.2106
     40 H          17.8483   74.2993    2.7681 H       1  UNL1        0.2106
     41 O          19.0819   77.4196    2.3096 O.co2   1  UNL1       -0.5466
     42 O          20.2664   78.0431    0.4637 O.co2   1  UNL1       -0.5466
     43 C          19.9055   77.1873    1.2576 C.2     1  UNL1        0.0799
@<TRIPOS>UNITY_ATOM_ATTR
2 1
charge -1
26 1
charge -1
41 1
charge -1
@<TRIPOS>BOND
     1     1     4    1
     2     1    24    1
     3     1     2    1
     4     1     3    2
     5    25    28    1
     6    25    24    1
     7    25    26    1
     8    25    27    2
     9     6    11    1
    10     6    12    1
    11    29    36    1
    12    29    37    1
    13     7     9    1
    14     7    13    1
    15     8    10    1
    16     8    14    1
    17     4     5    1
    18    28    36    1
    19    30    33    1
    20    30    38    1
    21    31    34    1
    22    31    39    1
    23    32    35    1
    24    32    40    1
    25    41    43   ar
    26    15    19    2
    27    42    43   ar
    28    16    22    2
    29    17    12    1
    30    17    19   ar
    31    17    20   ar
    32    18    19   ar
    33    18    22   ar
    34    18    23    1
    35     9    10    1
    36     9    11    1
    37    10    12    1
    38    11     5    1
    39    33    34    1
    40    33    35    1
    41    34    36    1
    42    35    37    1
    43    37    43    1
    44    20    21   ar
    45    21    22   ar
@<TRIPOS>MOLECULE
*****
 43 45 0 0 0
SMALL
GASTEIGER

@<TRIPOS>ATOM
      1 P          22.9682   71.6249   -2.9480 P.3     1  UNL1        0.2189
      2 O          24.4118   70.9928   -3.3160 O.co2   1  UNL1       -0.4371
      3 O          21.8856   70.6201   -2.6831 O.2     1  UNL1       -0.5170
      4 O          22.6812   72.6658   -4.1530 O.3     1  UNL1       -0.3112
      5 C          21.3727   72.7354   -4.6890 C.3     1  UNL1        0.1811
      6 O          20.5965   70.7040   -5.7130 O.3     1  UNL1       -0.3308
      7 O          21.0197   72.0859   -8.3403 O.3     1  UNL1       -0.3794
      8 O          18.3243   72.2951   -7.9844 O.3     1  UNL1       -0.3779
      9 C          20.5647   72.6247   -7.0989 C.3     1  UNL1        0.1713
     10 C          19.1369   72.1964   -6.8336 C.3     1  UNL1        0.1895
     11 C          21.3207   71.9249   -5.9777 C.3     1  UNL1        0.1764
     12 C          19.3193   70.7620   -6.3677 C.3     1  UNL1        0.2383
     13 H          20.5507   72.5177   -9.0719 H       1  UNL1        0.2105
     14 H          18.2386   73.2273   -8.2407 H       1  UNL1        0.2106
     15 O          16.7889   69.7591   -7.1213 O.2     1  UNL1       -0.2464
     16 O          15.4912   69.2228   -2.7313 O.2     1  UNL1       -0.2670
     17 N          18.3011   70.3527   -5.4422 N.ar    1  UNL1       -0.2551
     18 N          16.1446   69.4939   -4.9341 N.ar    1  UNL1       -0.2743
     19 C          17.0642   69.8632   -5.9245 C.ar    1  UNL1        0.3323
     20 C          18.5327   70.4365   -4.0746 C.ar    1  UNL1        0.0869
     21 C          17.6464   70.0805   -3.1426 C.ar    1  UNL1        0.0795
     22 C          16.3290   69.5596   -3.5625 C.ar    1  UNL1        0.2626
     23 H          15.2755   69.1520   -5.2456 H       1  UNL1        0.1734
     24 O          23.3048   72.5965   -1.7008 O.3     1  UNL1       -0.2703
     25 P          23.5445   74.1940   -1.6344 P.3     1  UNL1        0.2208
     26 O          23.6828   74.6123   -3.1920 O.co2   1  UNL1       -0.4371
     27 O          24.7059   74.6073   -0.7776 O.2     1  UNL1       -0.5170
     28 O          22.1230   74.8024   -1.1741 O.3     1  UNL1       -0.2858
     29 O          21.3468   73.5164    0.6570 O.3     1  UNL1       -0.3226
     30 O          25.0924   74.6675    1.9659 O.3     1  UNL1       -0.3794
     31 O          23.3576   76.5689    0.5840 O.3     1  UNL1       -0.3775
     32 O          24.6438   71.9510    1.0331 O.3     1  UNL1       -0.3792
     33 C          24.1046   74.2991    1.0033 C.3     1  UNL1        0.1718
     34 C          22.9433   75.2921    1.0559 C.3     1  UNL1        0.1968
     35 C          23.6155   72.8895    1.3434 C.3     1  UNL1        0.1723
     36 C          21.7680   74.8048    0.2074 C.3     1  UNL1        0.2706
     37 C          22.3663   72.5258    0.5461 C.3     1  UNL1        0.1830
     38 H          25.4179   75.5602    1.7700 H       1  UNL1        0.2105
     39 H          24.1033   76.8841    1.1178 H       1  UNL1        0.2106
     40 H          25.4446   72.1714    1.5340 H       1  UNL1        0.2106
     41 O          22.0733   71.1268    2.4058 O.co2   1  UNL1       -0.5466
     42 O          20.9543   70.5699    0.4987 O.co2   1  UNL1       -0.5466
     43 C          21.7126   71.3069    1.1110 C.2     1  UNL1        0.0799
@<TRIPOS>UNITY_ATOM_ATTR
2 1
charge -1
26 1
charge -1
41 1
charge -1
@<TRIPOS>BOND
     1     1     4    1
     2     1    24    1
     3     1     2    1
     4     1     3    2
     5    25    28    1
     6    25    24    1
     7    25    26    1
     8    25    27    2
     9     6    11    1
    10     6    12    1
    11    29    36    1
    12    29    37    1
    13     7     9    1
    14     7    13    1
    15     8    10    1
    16     8    14    1
    17     4     5    1
    18    28    36    1
    19    30    33    1
    20    30    38    1
    21    31    34    1
    22    31    39    1
    23    32    35    1
    24    32    40    1
    25    41    43   ar
    26    15    19    2
    27    42    43   ar
    28    16    22    2
    29    17    12    1
    30    17    19   ar
    31    17    20   ar
    32    18    19   ar
    33    18    22   ar
    34    18    23    1
    35     9    10    1
    36     9    11    1
    37    10    12    1
    38    11     5    1
    39    33    34    1
    40    33    35    1
    41    34    36    1
    42    35    37    1
    43    37    43    1
    44    20    21   ar
    45    21    22   ar
@<TRIPOS>MOLECULE
*****
 43 45 0 0 0
SMALL
GASTEIGER

@<TRIPOS>ATOM
      1 P          20.0595   71.1062   -4.5843 P.3     1  UNL1        0.2189
      2 O          20.0826   69.4882   -4.5644 O.co2   1  UNL1       -0.4371
      3 O          19.2256   71.7412   -3.5104 O.2     1  UNL1       -0.5170
      4 O          19.6429   71.4701   -6.1048 O.3     1  UNL1       -0.3112
      5 C          20.2680   70.7681   -7.1636 C.3     1  UNL1        0.1811
      6 O          18.2147   69.5191   -7.1241 O.3     1  UNL1       -0.3308
      7 O          17.8867   70.3243   -9.9939 O.3     1  UNL1       -0.3794
      8 O          16.2252   72.0538   -8.6961 O.3     1  UNL1       -0.3779
      9 C          18.4369   71.0655   -8.9046 C.3     1  UNL1        0.1713
     10 C          17.3331   71.5428   -7.9849 C.3     1  UNL1        0.1895
     11 C          19.1975   70.0942   -8.0122 C.3     1  UNL1        0.1764
     12 C          16.9988   70.2790   -7.2110 C.3     1  UNL1        0.2383
     13 H          17.3959   70.9238  -10.5781 H       1  UNL1        0.2105
     14 H          16.4891   72.8577   -9.1717 H       1  UNL1        0.2106
     15 O          16.5297   68.3121   -5.2393 O.2     1  UNL1       -0.2464
     16 O          15.1872   71.4630   -2.1549 O.2     1  UNL1       -0.2670
     17 N          16.5266   70.5576   -5.8842 N.ar    1  UNL1       -0.2551
     18 N          15.8605   69.8832   -3.7053 N.ar    1  UNL1       -0.2743
     19 C          16.3234   69.4969   -4.9700 C.ar    1  UNL1        0.3323
     20 C          16.2716   71.8684   -5.4998 C.ar    1  UNL1        0.0869
     21 C          15.8308   72.2211   -4.2906 C.ar    1  UNL1        0.0795
     22 C          15.5920   71.1731   -3.2767 C.ar    1  UNL1        0.2626
     23 H          15.7097   69.1619   -3.0523 H       1  UNL1        0.1734
     24 O          21.6284   71.4921   -4.5352 O.3     1  UNL1       -0.2703
     25 P          22.3708   72.9271   -4.5938 P.3     1  UNL1        0.2208
     26 O          21.1409   73.9771   -4.6661 O.co2   1  UNL1       -0.4371
     27 O          23.3648   73.0610   -5.7110 O.2     1  UNL1       -0.5170
     28 O          22.9911   73.1276   -3.1182 O.3     1  UNL1       -0.2858
     29 O          21.5070   72.6351   -1.3394 O.3     1  UNL1       -0.3226
     30 O          24.6487   74.4258    0.6583 O.3     1  UNL1       -0.3794
     31 O          23.6925   75.5162   -1.8777 O.3     1  UNL1       -0.3775
     32 O          24.3026   71.5416    0.7703 O.3     1  UNL1       -0.3792
     33 C          24.0300   73.6483   -0.3667 C.3     1  UNL1        0.1718
     34 C          23.0219   74.5114   -1.1257 C.3     1  UNL1        0.1968
     35 C          23.3233   72.4652    0.2988 C.3     1  UNL1        0.1723
     36 C          22.1773   73.6597   -2.0745 C.3     1  UNL1        0.2706
     37 C          22.4035   71.7427   -0.6814 C.3     1  UNL1        0.1830
     38 H          25.1042   75.1837    0.2591 H       1  UNL1        0.2105
     39 H          24.2305   76.0602   -1.2819 H       1  UNL1        0.2106
     40 H          24.8946   71.9890    1.3950 H       1  UNL1        0.2106
     41 O          20.3334   70.6402   -0.6573 O.co2   1  UNL1       -0.5466
     42 O          21.7247   70.2794    1.1128 O.co2   1  UNL1       -0.5466
     43 C          21.4826   70.8143    0.0412 C.2     1  UNL1        0.0799
@<TRIPOS>UNITY_ATOM_ATTR
2 1
charge -1
26 1
charge -1
41 1
charge -1
@<TRIPOS>BOND
     1     1     4    1
     2     1    24    1
     3     1     2    1
     4     1     3    2
     5    25    28    1
     6    25    24    1
     7    25    26    1
     8    25    27    2
     9     6    11    1
    10     6    12    1
    11    29    36    1
    12    29    37    1
    13     7     9    1
    14     7    13    1
    15     8    10    1
    16     8    14    1
    17     4     5    1
    18    28    36    1
    19    30    33    1
    20    30    38    1
    21    31    34    1
    22    31    39    1
    23    32    35    1
    24    32    40    1
    25    41    43   ar
    26    15    19    2
    27    42    43   ar
    28    16    22    2
    29    17    12    1
    30    17    19   ar
    31    17    20   ar
    32    18    19   ar
    33    18    22   ar
    34    18    23    1
    35     9    10    1
    36     9    11    1
    37    10    12    1
    38    11     5    1
    39    33    34    1
    40    33    35    1
    41    34    36    1
    42    35    37    1
    43    37    43    1
    44    20    21   ar
    45    21    22   ar
@<TRIPOS>MOLECULE
*****
 43 45 0 0 0
SMALL
GASTEIGER

@<TRIPOS>ATOM
      1 P          19.7243   71.7416   -2.2929 P.3     1  UNL1        0.2189
      2 O          18.3900   72.6515   -2.3956 O.co2   1  UNL1       -0.4371
      3 O          19.4778   70.2791   -2.0643 O.2     1  UNL1       -0.5170
      4 O          20.6178   72.4876   -1.1691 O.3     1  UNL1       -0.3112
      5 C          20.1278   73.6898   -0.6042 C.3     1  UNL1        0.1811
      6 O          20.2977   72.2700    1.3278 O.3     1  UNL1       -0.3308
      7 O          18.8062   74.4126    2.8030 O.3     1  UNL1       -0.3794
      8 O          21.3867   74.8472    3.5697 O.3     1  UNL1       -0.3779
      9 C          19.7823   74.5395    1.7688 C.3     1  UNL1        0.1713
     10 C          21.1638   74.2431    2.3128 C.3     1  UNL1        0.1895
     11 C          19.5754   73.3963    0.7847 C.3     1  UNL1        0.1764
     12 C          21.1549   72.7258    2.3865 C.3     1  UNL1        0.2383
     13 H          18.9185   75.1323    3.4442 H       1  UNL1        0.2105
     14 H          21.3836   75.8126    3.4696 H       1  UNL1        0.2106
     15 O          21.6600   70.2446    1.1355 O.2     1  UNL1       -0.2464
     16 O          26.2100   70.6563    1.7454 O.2     1  UNL1       -0.2670
     17 N          22.4620   72.1606    2.2051 N.ar    1  UNL1       -0.2551
     18 N          23.9256   70.4515    1.4413 N.ar    1  UNL1       -0.2743
     19 C          22.6065   70.9076    1.5638 C.ar    1  UNL1        0.3323
     20 C          23.5829   72.8459    2.6579 C.ar    1  UNL1        0.0869
     21 C          24.8339   72.3984    2.5338 C.ar    1  UNL1        0.0795
     22 C          25.0719   71.0967    1.8763 C.ar    1  UNL1        0.2626
     23 H          24.0512   69.5804    1.0001 H       1  UNL1        0.1734
     24 O          20.5050   72.0862   -3.6657 O.3     1  UNL1       -0.2703
     25 P          20.0983   73.0374   -4.9080 P.3     1  UNL1        0.2208
     26 O          21.4358   73.0471   -5.8198 O.co2   1  UNL1       -0.4371
     27 O          19.6134   74.4005   -4.5070 O.2     1  UNL1       -0.5170
     28 O          19.0339   72.1708   -5.7557 O.3     1  UNL1       -0.2858
     29 O          18.5378   69.8652   -5.5388 O.3     1  UNL1       -0.3226
     30 O          17.7158   70.5298   -9.5326 O.3     1  UNL1       -0.3794
     31 O          20.0815   71.7115   -8.2910 O.3     1  UNL1       -0.3775
     32 O          15.5424   70.2519   -7.6221 O.3     1  UNL1       -0.3792
     33 C          17.8120   70.8658   -8.1484 C.3     1  UNL1        0.1718
     34 C          19.2617   70.7185   -7.6856 C.3     1  UNL1        0.1968
     35 C          16.9043   69.9137   -7.3665 C.3     1  UNL1        0.1723
     36 C          19.3662   70.8454   -6.1652 C.3     1  UNL1        0.2706
     37 C          17.1573   70.0103   -5.8648 C.3     1  UNL1        0.1830
     38 H          18.2846   71.1220  -10.0495 H       1  UNL1        0.2105
     39 H          20.0198   71.6370   -9.2558 H       1  UNL1        0.2106
     40 H          15.3683   70.1945   -8.5746 H       1  UNL1        0.2106
     41 O          16.8804   68.8637   -3.8374 O.co2   1  UNL1       -0.5466
     42 O          15.7751   68.0438   -5.6554 O.co2   1  UNL1       -0.5466
     43 C          16.5205   68.8664   -5.1449 C.2     1  UNL1        0.0799
@<TRIPOS>UNITY_ATOM_ATTR
2 1
charge -1
26 1
charge -1
41 1
charge -1
@<TRIPOS>BOND
     1     1     4    1
     2     1    24    1
     3     1     2    1
     4     1     3    2
     5    25    28    1
     6    25    24    1
     7    25    26    1
     8    25    27    2
     9     6    11    1
    10     6    12    1
    11    29    36    1
    12    29    37    1
    13     7     9    1
    14     7    13    1
    15     8    10    1
    16     8    14    1
    17     4     5    1
    18    28    36    1
    19    30    33    1
    20    30    38    1
    21    31    34    1
    22    31    39    1
    23    32    35    1
    24    32    40    1
    25    41    43   ar
    26    15    19    2
    27    42    43   ar
    28    16    22    2
    29    17    12    1
    30    17    19   ar
    31    17    20   ar
    32    18    19   ar
    33    18    22   ar
    34    18    23    1
    35     9    10    1
    36     9    11    1
    37    10    12    1
    38    11     5    1
    39    33    34    1
    40    33    35    1
    41    34    36    1
    42    35    37    1
    43    37    43    1
    44    20    21   ar
    45    21    22   ar
@<TRIPOS>MOLECULE
*****
 43 45 0 0 0
SMALL
GASTEIGER

@<TRIPOS>ATOM
      1 P          16.2294   69.7251   -2.5656 P.3     1  UNL1        0.2189
      2 O          15.5650   71.1887   -2.3773 O.co2   1  UNL1       -0.4371
      3 O          16.1492   69.1671   -3.9563 O.2     1  UNL1       -0.5170
      4 O          15.5353   68.8316   -1.4089 O.3     1  UNL1       -0.3112
      5 C          14.7630   69.4874   -0.4200 C.3     1  UNL1        0.1811
      6 O          12.8376   68.0650   -0.2022 O.3     1  UNL1       -0.3308
      7 O          11.2047   70.4823   -0.8963 O.3     1  UNL1       -0.3794
      8 O          10.9386   70.3417    1.8140 O.3     1  UNL1       -0.3779
      9 C          12.4035   70.3924   -0.1261 C.3     1  UNL1        0.1713
     10 C          12.1082   69.8009    1.2360 C.3     1  UNL1        0.1895
     11 C          13.2859   69.3221   -0.7537 C.3     1  UNL1        0.1764
     12 C          11.9720   68.3223    0.9149 C.3     1  UNL1        0.2383
     13 H          10.6246   71.1601   -0.5143 H       1  UNL1        0.2105
     14 H          11.0759   71.2843    1.9999 H       1  UNL1        0.2106
     15 O          12.0282   65.4999    0.8269 O.2     1  UNL1       -0.2464
     16 O          13.4964   65.2113    5.1864 O.2     1  UNL1       -0.2670
     17 N          12.3650   67.4847    2.0126 N.ar    1  UNL1       -0.2551
     18 N          12.7585   65.3588    2.9986 N.ar    1  UNL1       -0.2743
     19 C          12.3579   66.0775    1.8645 C.ar    1  UNL1        0.3323
     20 C          12.7530   68.0574    3.2177 C.ar    1  UNL1        0.0869
     21 C          13.1324   67.3593    4.2899 C.ar    1  UNL1        0.0795
     22 C          13.1523   65.8835    4.2189 C.ar    1  UNL1        0.2626
     23 H          12.7597   64.3774    2.9203 H       1  UNL1        0.1734
     24 O          17.7327   69.9348   -2.0099 O.3     1  UNL1       -0.2703
     25 P          18.7146   71.2181   -2.0627 P.3     1  UNL1        0.2208
     26 O          20.0650   70.6802   -1.3505 O.co2   1  UNL1       -0.4371
     27 O          18.1403   72.4588   -1.4422 O.2     1  UNL1       -0.5170
     28 O          19.1078   71.3688   -3.6200 O.3     1  UNL1       -0.2858
     29 O          18.9151   69.8505   -5.4274 O.3     1  UNL1       -0.3226
     30 O          22.3719   71.8896   -6.4073 O.3     1  UNL1       -0.3794
     31 O          21.8719   71.0616   -3.6507 O.3     1  UNL1       -0.3775
     32 O          19.8907   72.4666   -7.8078 O.3     1  UNL1       -0.3792
     33 C          21.0711   71.7260   -5.8423 C.3     1  UNL1        0.1718
     34 C          21.1109   70.6330   -4.7740 C.3     1  UNL1        0.1968
     35 C          20.1121   71.3346   -6.9688 C.3     1  UNL1        0.1723
     36 C          19.6997   70.2697   -4.3102 C.3     1  UNL1        0.2706
     37 C          18.7685   70.8650   -6.4186 C.3     1  UNL1        0.1830
     38 H          22.9986   72.1386   -5.7098 H       1  UNL1        0.2105
     39 H          22.7686   71.2940   -3.9378 H       1  UNL1        0.2106
     40 H          20.7382   72.7755   -8.1644 H       1  UNL1        0.2106
     41 O          18.7809   69.6960   -8.4520 O.co2   1  UNL1       -0.5466
     42 O          16.7524   70.0729   -7.4813 O.co2   1  UNL1       -0.5466
     43 C          17.9693   70.1831   -7.4809 C.2     1  UNL1        0.0799
@<TRIPOS>UNITY_ATOM_ATTR
2 1
charge -1
26 1
charge -1
41 1
charge -1
@<TRIPOS>BOND
     1     1     4    1
     2     1    24    1
     3     1     2    1
     4     1     3    2
     5    25    28    1
     6    25    24    1
     7    25    26    1
     8    25    27    2
     9     6    11    1
    10     6    12    1
    11    29    36    1
    12    29    37    1
    13     7     9    1
    14     7    13    1
    15     8    10    1
    16     8    14    1
    17     4     5    1
    18    28    36    1
    19    30    33    1
    20    30    38    1
    21    31    34    1
    22    31    39    1
    23    32    35    1
    24    32    40    1
    25    41    43   ar
    26    15    19    2
    27    42    43   ar
    28    16    22    2
    29    17    12    1
    30    17    19   ar
    31    17    20   ar
    32    18    19   ar
    33    18    22   ar
    34    18    23    1
    35     9    10    1
    36     9    11    1
    37    10    12    1
    38    11     5    1
    39    33    34    1
    40    33    35    1
    41    34    36    1
    42    35    37    1
    43    37    43    1
    44    20    21   ar
    45    21    22   ar
@<TRIPOS>MOLECULE
*****
 43 45 0 0 0
SMALL
GASTEIGER

@<TRIPOS>ATOM
      1 P          23.4384   72.1961   -3.5188 P.3     1  UNL1        0.2189
      2 O          23.9830   70.7125   -3.1705 O.co2   1  UNL1       -0.4371
      3 O          24.4766   73.1458   -4.0403 O.2     1  UNL1       -0.5170
      4 O          22.6788   72.6584   -2.1671 O.3     1  UNL1       -0.3112
      5 C          23.4292   72.7598   -0.9708 C.3     1  UNL1        0.1811
      6 O          24.4687   71.2763    0.6092 O.3     1  UNL1       -0.3308
      7 O          21.7245   70.1686    1.0927 O.3     1  UNL1       -0.3794
      8 O          22.0854   71.8213    3.2315 O.3     1  UNL1       -0.3779
      9 C          22.1213   71.5128    0.8199 C.3     1  UNL1        0.1713
     10 C          22.7799   72.1225    2.0393 C.3     1  UNL1        0.1895
     11 C          23.2723   71.4699   -0.1759 C.3     1  UNL1        0.1764
     12 C          24.1642   71.4984    1.9953 C.3     1  UNL1        0.2383
     13 H          20.9900   70.1703    1.7269 H       1  UNL1        0.2105
     14 H          21.2106   72.2413    3.2111 H       1  UNL1        0.2106
     15 O          26.8684   70.7639    2.3484 O.2     1  UNL1       -0.2464
     16 O          27.9300   74.8563    4.1839 O.2     1  UNL1       -0.2670
     17 N          25.1687   72.3525    2.5630 N.ar    1  UNL1       -0.2551
     18 N          27.3943   72.8025    3.2632 N.ar    1  UNL1       -0.2743
     19 C          26.4982   71.8868    2.6962 C.ar    1  UNL1        0.3323
     20 C          24.8339   73.6355    2.9789 C.ar    1  UNL1        0.0869
     21 C          25.6992   74.4969    3.5174 C.ar    1  UNL1        0.0795
     22 C          27.1084   74.0884    3.6926 C.ar    1  UNL1        0.2626
     23 H          28.3254   72.5002    3.3680 H       1  UNL1        0.1734
     24 O          22.2191   71.9047   -4.5393 O.3     1  UNL1       -0.2703
     25 P          21.5165   72.8463   -5.6499 P.3     1  UNL1        0.2208
     26 O          22.3942   72.5663   -6.9809 O.co2   1  UNL1       -0.4371
     27 O          21.4261   74.2938   -5.2619 O.2     1  UNL1       -0.5170
     28 O          20.0952   72.1419   -5.9437 O.3     1  UNL1       -0.2858
     29 O          19.3388   69.9633   -5.4042 O.3     1  UNL1       -0.3226
     30 O          17.3330   70.6981   -8.9405 O.3     1  UNL1       -0.3794
     31 O          20.1361   71.4647   -8.6410 O.3     1  UNL1       -0.3775
     32 O          15.9187   70.8379   -6.4045 O.3     1  UNL1       -0.3792
     33 C          17.9440   71.0341   -7.6947 C.3     1  UNL1        0.1718
     34 C          19.4212   70.6413   -7.7269 C.3     1  UNL1        0.1968
     35 C          17.2138   70.2693   -6.5884 C.3     1  UNL1        0.1723
     36 C          20.0524   70.7723   -6.3401 C.3     1  UNL1        0.2706
     37 C          17.9717   70.3440   -5.2660 C.3     1  UNL1        0.1830
     38 H          17.7806   71.1725   -9.6587 H       1  UNL1        0.2105
     39 H          19.7407   71.3867   -9.5231 H       1  UNL1        0.2106
     40 H          15.4260   70.7967   -7.2390 H       1  UNL1        0.2106
     41 O          18.4121   68.9509   -3.4312 O.co2   1  UNL1       -0.5466
     42 O          16.2916   68.9280   -4.2691 O.co2   1  UNL1       -0.5466
     43 C          17.4410   69.3418   -4.2932 C.2     1  UNL1        0.0799
@<TRIPOS>UNITY_ATOM_ATTR
2 1
charge -1
26 1
charge -1
41 1
charge -1
@<TRIPOS>BOND
     1     1     4    1
     2     1    24    1
     3     1     2    1
     4     1     3    2
     5    25    28    1
     6    25    24    1
     7    25    26    1
     8    25    27    2
     9     6    11    1
    10     6    12    1
    11    29    36    1
    12    29    37    1
    13     7     9    1
    14     7    13    1
    15     8    10    1
    16     8    14    1
    17     4     5    1
    18    28    36    1
    19    30    33    1
    20    30    38    1
    21    31    34    1
    22    31    39    1
    23    32    35    1
    24    32    40    1
    25    41    43   ar
    26    15    19    2
    27    42    43   ar
    28    16    22    2
    29    17    12    1
    30    17    19   ar
    31    17    20   ar
    32    18    19   ar
    33    18    22   ar
    34    18    23    1
    35     9    10    1
    36     9    11    1
    37    10    12    1
    38    11     5    1
    39    33    34    1
    40    33    35    1
    41    34    36    1
    42    35    37    1
    43    37    43    1
    44    20    21   ar
    45    21    22   ar
@<TRIPOS>MOLECULE
*****
 43 45 0 0 0
SMALL
GASTEIGER

@<TRIPOS>ATOM
      1 P          21.8760   72.4196   -5.7283 P.3     1  UNL1        0.2189
      2 O          21.0896   73.8018   -5.4284 O.co2   1  UNL1       -0.4371
      3 O          23.1439   72.5702   -6.5167 O.2     1  UNL1       -0.5170
      4 O          20.7476   71.4658   -6.3878 O.3     1  UNL1       -0.3112
      5 C          20.1357   71.8783   -7.5961 C.3     1  UNL1        0.1811
      6 O          18.8459   69.8927   -7.1817 O.3     1  UNL1       -0.3308
      7 O          18.0917   70.0017  -10.0818 O.3     1  UNL1       -0.3794
      8 O          15.8869   71.0342   -8.8536 O.3     1  UNL1       -0.3779
      9 C          18.2985   71.0731   -9.1610 C.3     1  UNL1        0.1713
     10 C          17.1318   71.1719   -8.2012 C.3     1  UNL1        0.1895
     11 C          19.4414   70.6820   -8.2342 C.3     1  UNL1        0.1764
     12 C          17.4173   70.0311   -7.2394 C.3     1  UNL1        0.2383
     13 H          17.3659   70.2286  -10.6847 H       1  UNL1        0.2105
     14 H          15.7519   71.7846   -9.4542 H       1  UNL1        0.2106
     15 O          16.3723   68.0559   -5.5122 O.2     1  UNL1       -0.2464
     16 O          15.5361   71.1417   -2.1921 O.2     1  UNL1       -0.2670
     17 N          16.9196   70.2907   -5.9181 N.ar    1  UNL1       -0.2551
     18 N          15.9559   69.5948   -3.8607 N.ar    1  UNL1       -0.2743
     19 C          16.4158   69.2275   -5.1321 C.ar    1  UNL1        0.3323
     20 C          16.9351   71.5852   -5.4131 C.ar    1  UNL1        0.0869
     21 C          16.4933   71.9198   -4.1992 C.ar    1  UNL1        0.0795
     22 C          15.9502   70.8682   -3.3146 C.ar    1  UNL1        0.2626
     23 H          15.5986   68.8720   -3.2957 H       1  UNL1        0.1734
     24 O          22.0710   71.7859   -4.2541 O.3     1  UNL1       -0.2703
     25 P          23.2532   71.9711   -3.1670 P.3     1  UNL1        0.2208
     26 O          23.9171   73.3884   -3.5804 O.co2   1  UNL1       -0.4371
     27 O          24.2234   70.8267   -3.1113 O.2     1  UNL1       -0.5170
     28 O          22.4890   72.2691   -1.7779 O.3     1  UNL1       -0.2858
     29 O          23.1025   70.6926   -0.1205 O.3     1  UNL1       -0.3226
     30 O          20.1927   72.8786    1.8346 O.3     1  UNL1       -0.3794
     31 O          19.8359   72.1040   -0.9595 O.3     1  UNL1       -0.3775
     32 O          22.9995   73.2873    2.4716 O.3     1  UNL1       -0.3792
     33 C          21.2662   72.6642    0.9184 C.3     1  UNL1        0.1718
     34 C          20.8602   71.6053   -0.1070 C.3     1  UNL1        0.1968
     35 C          22.4830   72.1922    1.7176 C.3     1  UNL1        0.1723
     36 C          22.0568   71.1830   -0.9605 C.3     1  UNL1        0.2706
     37 C          23.5841   71.6698    0.7994 C.3     1  UNL1        0.1830
     38 H          19.4082   73.1791    1.3493 H       1  UNL1        0.2105
     39 H          19.0736   72.3741   -0.4245 H       1  UNL1        0.2106
     40 H          22.3084   73.6292    3.0601 H       1  UNL1        0.2106
     41 O          24.1742   70.6731    2.8390 O.co2   1  UNL1       -0.5466
     42 O          25.7010   70.5661    1.1488 O.co2   1  UNL1       -0.5466
     43 C          24.6129   70.9179    1.5794 C.2     1  UNL1        0.0799
@<TRIPOS>UNITY_ATOM_ATTR
2 1
charge -1
26 1
charge -1
41 1
charge -1
@<TRIPOS>BOND
     1     1     4    1
     2     1    24    1
     3     1     2    1
     4     1     3    2
     5    25    28    1
     6    25    24    1
     7    25    26    1
     8    25    27    2
     9     6    11    1
    10     6    12    1
    11    29    36    1
    12    29    37    1
    13     7     9    1
    14     7    13    1
    15     8    10    1
    16     8    14    1
    17     4     5    1
    18    28    36    1
    19    30    33    1
    20    30    38    1
    21    31    34    1
    22    31    39    1
    23    32    35    1
    24    32    40    1
    25    41    43   ar
    26    15    19    2
    27    42    43   ar
    28    16    22    2
    29    17    12    1
    30    17    19   ar
    31    17    20   ar
    32    18    19   ar
    33    18    22   ar
    34    18    23    1
    35     9    10    1
    36     9    11    1
    37    10    12    1
    38    11     5    1
    39    33    34    1
    40    33    35    1
    41    34    36    1
    42    35    37    1
    43    37    43    1
    44    20    21   ar
    45    21    22   ar
@<TRIPOS>MOLECULE
*****
 43 45 0 0 0
SMALL
GASTEIGER

@<TRIPOS>ATOM
      1 P          20.7475   74.8212   -3.5759 P.3     1  UNL1        0.2189
      2 O          19.9294   73.9323   -2.4992 O.co2   1  UNL1       -0.4371
      3 O          20.1964   76.1970   -3.8111 O.2     1  UNL1       -0.5170
      4 O          20.8362   73.8675   -4.8799 O.3     1  UNL1       -0.3112
      5 C          21.4499   72.5983   -4.7488 C.3     1  UNL1        0.1811
      6 O          20.5569   70.6285   -5.7975 O.3     1  UNL1       -0.3308
      7 O          20.8731   72.0938   -8.3945 O.3     1  UNL1       -0.3794
      8 O          18.2094   72.3651   -7.8778 O.3     1  UNL1       -0.3779
      9 C          20.5048   72.5991   -7.1108 C.3     1  UNL1        0.1713
     10 C          19.0821   72.2014   -6.7795 C.3     1  UNL1        0.1895
     11 C          21.3014   71.8376   -6.0601 C.3     1  UNL1        0.1764
     12 C          19.2472   70.7462   -6.3757 C.3     1  UNL1        0.2383
     13 H          20.3769   72.5653   -9.0824 H       1  UNL1        0.2105
     14 H          18.1375   73.3081   -8.0958 H       1  UNL1        0.2106
     15 O          16.6828   69.7551   -7.0221 O.2     1  UNL1       -0.2464
     16 O          15.5833   69.1862   -2.5824 O.2     1  UNL1       -0.2670
     17 N          18.2708   70.3318   -5.4084 N.ar    1  UNL1       -0.2551
     18 N          16.1372   69.4736   -4.8102 N.ar    1  UNL1       -0.2743
     19 C          17.0121   69.8489   -5.8382 C.ar    1  UNL1        0.3323
     20 C          18.5641   70.4040   -4.0520 C.ar    1  UNL1        0.0869
     21 C          17.7199   70.0424   -3.0838 C.ar    1  UNL1        0.0795
     22 C          16.3835   69.5279   -3.4479 C.ar    1  UNL1        0.2626
     23 H          15.2540   69.1362   -5.0848 H       1  UNL1        0.1734
     24 O          22.2574   74.7902   -2.9996 O.3     1  UNL1       -0.2703
     25 P          22.8405   75.1344   -1.5315 P.3     1  UNL1        0.2208
     26 O          21.8792   76.3338   -1.0237 O.co2   1  UNL1       -0.4371
     27 O          24.3048   75.4653   -1.5126 O.2     1  UNL1       -0.5170
     28 O          22.4283   73.8686   -0.6203 O.3     1  UNL1       -0.2858
     29 O          23.5957   73.6500    1.4287 O.3     1  UNL1       -0.3226
     30 O          21.6816   69.9988    1.1580 O.3     1  UNL1       -0.3794
     31 O          22.9303   71.1944   -1.1970 O.3     1  UNL1       -0.3775
     32 O          20.6902   72.0345    2.9812 O.3     1  UNL1       -0.3792
     33 C          21.8424   71.4037    0.9614 C.3     1  UNL1        0.1718
     34 C          23.1022   71.6639    0.1352 C.3     1  UNL1        0.1968
     35 C          21.9626   72.0629    2.3373 C.3     1  UNL1        0.1723
     36 C          23.4337   73.1564    0.0984 C.3     1  UNL1        0.2706
     37 C          22.4183   73.5146    2.2215 C.3     1  UNL1        0.1830
     38 H          21.6031   69.5586    0.2970 H       1  UNL1        0.2105
     39 H          22.7194   70.2480   -1.1811 H       1  UNL1        0.2106
     40 H          20.3886   71.1161    3.0610 H       1  UNL1        0.2106
     41 O          23.0477   73.0290    4.4282 O.co2   1  UNL1       -0.5466
     42 O          22.9997   75.2260    3.8198 O.co2   1  UNL1       -0.5466
     43 C          22.8467   74.0438    3.5514 C.2     1  UNL1        0.0799
@<TRIPOS>UNITY_ATOM_ATTR
2 1
charge -1
26 1
charge -1
41 1
charge -1
@<TRIPOS>BOND
     1     1     4    1
     2     1    24    1
     3     1     2    1
     4     1     3    2
     5    25    28    1
     6    25    24    1
     7    25    26    1
     8    25    27    2
     9     6    11    1
    10     6    12    1
    11    29    36    1
    12    29    37    1
    13     7     9    1
    14     7    13    1
    15     8    10    1
    16     8    14    1
    17     4     5    1
    18    28    36    1
    19    30    33    1
    20    30    38    1
    21    31    34    1
    22    31    39    1
    23    32    35    1
    24    32    40    1
    25    41    43   ar
    26    15    19    2
    27    42    43   ar
    28    16    22    2
    29    17    12    1
    30    17    19   ar
    31    17    20   ar
    32    18    19   ar
    33    18    22   ar
    34    18    23    1
    35     9    10    1
    36     9    11    1
    37    10    12    1
    38    11     5    1
    39    33    34    1
    40    33    35    1
    41    34    36    1
    42    35    37    1
    43    37    43    1
    44    20    21   ar
    45    21    22   ar
@<TRIPOS>MOLECULE
*****
 43 45 0 0 0
SMALL
GASTEIGER

@<TRIPOS>ATOM
      1 P          22.1287   72.8618   -4.9049 P.3     1  UNL1        0.2189
      2 O          23.7091   72.5313   -4.7955 O.co2   1  UNL1       -0.4371
      3 O          21.8005   74.1907   -5.5198 O.2     1  UNL1       -0.5170
      4 O          21.5780   72.6280   -3.4016 O.3     1  UNL1       -0.3112
      5 C          21.3698   71.3002   -2.9566 C.3     1  UNL1        0.1811
      6 O          20.6690   70.6084   -0.7639 O.3     1  UNL1       -0.3308
      7 O          18.4442   72.5983   -1.0504 O.3     1  UNL1       -0.3794
      8 O          20.2277   73.9223    0.5314 O.3     1  UNL1       -0.3779
      9 C          19.7929   72.6781   -1.5119 C.3     1  UNL1        0.1713
     10 C          20.7293   72.9408   -0.3516 C.3     1  UNL1        0.1895
     11 C          20.2202   71.2863   -1.9574 C.3     1  UNL1        0.1764
     12 C          20.8253   71.5685    0.2931 C.3     1  UNL1        0.2383
     13 H          18.1489   73.4760   -0.7603 H       1  UNL1        0.2105
     14 H          20.1860   74.7774    0.0743 H       1  UNL1        0.2106
     15 O          21.3252   72.0522    3.0303 O.2     1  UNL1       -0.2464
     16 O          25.7169   70.7048    2.6541 O.2     1  UNL1       -0.2670
     17 N          22.0903   71.3527    0.9366 N.ar    1  UNL1       -0.2551
     18 N          23.5123   71.3816    2.8401 N.ar    1  UNL1       -0.2743
     19 C          22.2360   71.6273    2.3170 C.ar    1  UNL1        0.3323
     20 C          23.1687   70.8729    0.2032 C.ar    1  UNL1        0.0869
     21 C          24.3792   70.6435    0.7158 C.ar    1  UNL1        0.0795
     22 C          24.6157   70.9055    2.1507 C.ar    1  UNL1        0.2626
     23 H          23.6386   71.5674    3.7987 H       1  UNL1        0.1734
     24 O          21.5459   71.5859   -5.7080 O.3     1  UNL1       -0.2703
     25 P          20.9411   71.4577   -7.2018 P.3     1  UNL1        0.2208
     26 O          21.1610   69.8938   -7.5569 O.co2   1  UNL1       -0.4371
     27 O          21.5454   72.4081   -8.1944 O.2     1  UNL1       -0.5170
     28 O          19.3465   71.6119   -7.0124 O.3     1  UNL1       -0.2858
     29 O          17.8188   69.9910   -6.2074 O.3     1  UNL1       -0.3226
     30 O          15.4211   72.2337   -8.7152 O.3     1  UNL1       -0.3794
     31 O          18.1373   71.5151   -9.5153 O.3     1  UNL1       -0.3775
     32 O          15.2123   72.5459   -5.8325 O.3     1  UNL1       -0.3792
     33 C          16.4918   72.0012   -7.8001 C.3     1  UNL1        0.1718
     34 C          17.4555   70.9717   -8.3908 C.3     1  UNL1        0.1968
     35 C          15.8915   71.4794   -6.4926 C.3     1  UNL1        0.1723
     36 C          18.4851   70.5266   -7.3513 C.3     1  UNL1        0.2706
     37 C          16.9717   70.9382   -5.5606 C.3     1  UNL1        0.1830
     38 H          15.7786   72.5658   -9.5538 H       1  UNL1        0.2105
     39 H          17.4900   71.7999  -10.1788 H       1  UNL1        0.2106
     40 H          14.5221   72.8995   -6.4152 H       1  UNL1        0.2106
     41 O          15.9068   70.9605   -3.4709 O.co2   1  UNL1       -0.5466
     42 O          16.2862   68.9238   -4.4232 O.co2   1  UNL1       -0.5466
     43 C          16.3650   70.1428   -4.4508 C.2     1  UNL1        0.0799
@<TRIPOS>UNITY_ATOM_ATTR
2 1
charge -1
26 1
charge -1
41 1
charge -1
@<TRIPOS>BOND
     1     1     4    1
     2     1    24    1
     3     1     2    1
     4     1     3    2
     5    25    28    1
     6    25    24    1
     7    25    26    1
     8    25    27    2
     9     6    11    1
    10     6    12    1
    11    29    36    1
    12    29    37    1
    13     7     9    1
    14     7    13    1
    15     8    10    1
    16     8    14    1
    17     4     5    1
    18    28    36    1
    19    30    33    1
    20    30    38    1
    21    31    34    1
    22    31    39    1
    23    32    35    1
    24    32    40    1
    25    41    43   ar
    26    15    19    2
    27    42    43   ar
    28    16    22    2
    29    17    12    1
    30    17    19   ar
    31    17    20   ar
    32    18    19   ar
    33    18    22   ar
    34    18    23    1
    35     9    10    1
    36     9    11    1
    37    10    12    1
    38    11     5    1
    39    33    34    1
    40    33    35    1
    41    34    36    1
    42    35    37    1
    43    37    43    1
    44    20    21   ar
    45    21    22   ar
@<TRIPOS>MOLECULE
*****
 43 45 0 0 0
SMALL
GASTEIGER

@<TRIPOS>ATOM
      1 P          23.1571   73.6953   -4.0017 P.3     1  UNL1        0.2189
      2 O          23.2269   75.1341   -4.7391 O.co2   1  UNL1       -0.4371
      3 O          24.4335   72.9067   -4.0290 O.2     1  UNL1       -0.5170
      4 O          21.8726   72.9764   -4.6734 O.3     1  UNL1       -0.3112
      5 C          20.5984   73.5685   -4.4991 C.3     1  UNL1        0.1811
      6 O          18.6845   72.1282   -4.7004 O.3     1  UNL1       -0.3308
      7 O          19.6696   70.7804   -2.2095 O.3     1  UNL1       -0.3794
      8 O          20.4818   69.0711   -4.1729 O.3     1  UNL1       -0.3779
      9 C          20.4165   71.3364   -3.2918 C.3     1  UNL1        0.1713
     10 C          20.3307   70.4353   -4.5055 C.3     1  UNL1        0.1895
     11 C          19.6903   72.5860   -3.7708 C.3     1  UNL1        0.1764
     12 C          18.9454   70.7570   -5.0397 C.3     1  UNL1        0.2383
     13 H          20.1142   69.9806   -1.8866 H       1  UNL1        0.2105
     14 H          21.3797   68.9175   -3.8381 H       1  UNL1        0.2106
     15 O          16.6270   69.9131   -6.4143 O.2     1  UNL1       -0.2464
     16 O          18.7261   70.2050  -10.5073 O.2     1  UNL1       -0.2670
     17 N          18.8584   70.6039   -6.4645 N.ar    1  UNL1       -0.2551
     18 N          17.6750   70.0583   -8.4515 N.ar    1  UNL1       -0.2743
     19 C          17.6468   70.1739   -7.0555 C.ar    1  UNL1        0.3323
     20 C          19.9635   70.8798   -7.2605 C.ar    1  UNL1        0.0869
     21 C          19.9751   70.7650   -8.5899 C.ar    1  UNL1        0.0795
     22 C          18.7497   70.3206   -9.2857 C.ar    1  UNL1        0.2626
     23 H          16.8437   69.7586   -8.8855 H       1  UNL1        0.1734
     24 O          22.6297   74.0717   -2.5208 O.3     1  UNL1       -0.2703
     25 P          23.3490   74.8603   -1.3066 P.3     1  UNL1        0.2208
     26 O          22.4884   76.2265   -1.1917 O.co2   1  UNL1       -0.4371
     27 O          24.8230   75.0721   -1.4973 O.2     1  UNL1       -0.5170
     28 O          22.9587   74.0210    0.0147 O.3     1  UNL1       -0.2858
     29 O          23.4001   71.7062    0.2515 O.3     1  UNL1       -0.3226
     30 O          20.3596   72.2668    2.9917 O.3     1  UNL1       -0.3794
     31 O          20.2413   73.5434    0.3667 O.3     1  UNL1       -0.3775
     32 O          23.1042   71.9614    3.8997 O.3     1  UNL1       -0.3792
     33 C          21.5071   72.6328    2.2254 C.3     1  UNL1        0.1718
     34 C          21.1787   72.5383    0.7352 C.3     1  UNL1        0.1968
     35 C          22.6412   71.6694    2.5826 C.3     1  UNL1        0.1723
     36 C          22.4403   72.6983   -0.1143 C.3     1  UNL1        0.2706
     37 C          23.8120   71.8033    1.6131 C.3     1  UNL1        0.1830
     38 H          19.6256   72.8654    2.7813 H       1  UNL1        0.2105
     39 H          19.4384   73.4480    0.9020 H       1  UNL1        0.2106
     40 H          22.3686   71.8800    4.5265 H       1  UNL1        0.2106
     41 O          25.3840   70.3977    0.5861 O.co2   1  UNL1       -0.5466
     42 O          24.9459   70.0306    2.7935 O.co2   1  UNL1       -0.5466
     43 C          24.7567   70.6552    1.7605 C.2     1  UNL1        0.0799
@<TRIPOS>UNITY_ATOM_ATTR
2 1
charge -1
26 1
charge -1
41 1
charge -1
@<TRIPOS>BOND
     1     1     4    1
     2     1    24    1
     3     1     2    1
     4     1     3    2
     5    25    28    1
     6    25    24    1
     7    25    26    1
     8    25    27    2
     9     6    11    1
    10     6    12    1
    11    29    36    1
    12    29    37    1
    13     7     9    1
    14     7    13    1
    15     8    10    1
    16     8    14    1
    17     4     5    1
    18    28    36    1
    19    30    33    1
    20    30    38    1
    21    31    34    1
    22    31    39    1
    23    32    35    1
    24    32    40    1
    25    41    43   ar
    26    15    19    2
    27    42    43   ar
    28    16    22    2
    29    17    12    1
    30    17    19   ar
    31    17    20   ar
    32    18    19   ar
    33    18    22   ar
    34    18    23    1
    35     9    10    1
    36     9    11    1
    37    10    12    1
    38    11     5    1
    39    33    34    1
    40    33    35    1
    41    34    36    1
    42    35    37    1
    43    37    43    1
    44    20    21   ar
    45    21    22   ar
