@<TRIPOS>MOLECULE
GDU
 43 45 0 0 0
SMALL
GASTEIGER

@<TRIPOS>ATOM
      1 P          22.6429   71.5271   -2.1605 P.3     1  UNL1        0.2189
      2 O          23.2050   71.2921   -3.5090 O.2     1  UNL1       -0.5170
      3 O          22.9663   73.0358   -1.6998 O.3     1  UNL1       -0.4371
      4 O          21.0501   71.3068   -2.1967 O.3     1  UNL1       -0.3112
      5 C          20.4930   72.4272   -2.8859 C.3     1  UNL1        0.1811
      6 C          18.1644   71.1947   -5.3325 C.3     1  UNL1        0.2383
      7 C          18.5097   69.9568   -4.4658 C.3     1  UNL1        0.1895
      8 O          17.4033   69.0540   -4.4025 O.3     1  UNL1       -0.3779
      9 C          18.7816   70.5965   -3.0794 C.3     1  UNL1        0.1713
     10 C          19.0983   72.0686   -3.4021 C.3     1  UNL1        0.1764
     11 O          19.0542   72.2152   -4.8321 O.3     1  UNL1       -0.3308
     12 O          17.6237   70.4977   -2.2478 O.3     1  UNL1       -0.3794
     13 H          17.6822   68.3093   -3.8516 H       1  UNL1        0.2106
     14 H          17.4423   69.5552   -2.1312 H       1  UNL1        0.2105
     15 N          18.4301   70.9271   -6.7470 N.ar    1  UNL1       -0.2551
     16 C          17.4199   70.5697   -7.5593 C.ar    1  UNL1        0.3323
     17 N          17.6367   70.3215   -8.8644 N.ar    1  UNL1       -0.2743
     18 C          18.8781   70.4183   -9.3779 C.ar    1  UNL1        0.2626
     19 C          19.9529   70.7881   -8.5329 C.ar    1  UNL1        0.0795
     20 C          19.7070   71.0356   -7.2287 C.ar    1  UNL1        0.0869
     21 O          16.2945   70.4788   -7.1106 O.2     1  UNL1       -0.2464
     22 O          19.0761   70.1891  -10.5581 O.2     1  UNL1       -0.2670
     23 H          16.8950   70.0689   -9.4371 H       1  UNL1        0.1734
     24 O          23.3051   70.4952   -1.1169 O.3     1  UNL1       -0.2703
     25 P          22.4609   70.6066    0.2488 P.3     1  UNL1        0.2208
     26 O          21.1026   70.0603    0.0348 O.2     1  UNL1       -0.5170
     27 O          23.2005   69.7660    1.4066 O.3     1  UNL1       -0.4371
     28 O          22.3559   72.1502    0.6917 O.3     1  UNL1       -0.2858
     29 C          21.0663   72.3264    1.2795 C.3     1  UNL1        0.2704
     30 C          20.5674   73.7444    0.9970 C.3     1  UNL1        0.1967
     31 C          21.5678   74.7495    1.5762 C.3     1  UNL1        0.1715
     32 C          21.7924   74.4199    3.0563 C.3     1  UNL1        0.1694
     33 C          22.2006   72.9500    3.1824 C.3     1  UNL1        0.1761
     34 O          20.4531   73.9394   -0.4137 O.3     1  UNL1       -0.3775
     35 O          21.0451   76.0737    1.4508 O.3     1  UNL1       -0.3794
     36 O          20.5861   74.6500    3.7855 O.3     1  UNL1       -0.3794
     37 O          21.1546   72.1157    2.6868 O.3     1  UNL1       -0.3258
     38 H          19.8208   73.2827   -0.7358 H       1  UNL1        0.2106
     39 H          20.9086   76.2327    0.5082 H       1  UNL1        0.2105
     40 H          20.3650   75.5837    3.6732 H       1  UNL1        0.2105
     41 C          22.4608   72.6192    4.6537 C.3     1  UNL1        0.1693
     42 O          21.2798   72.8769    5.4151 O.3     1  UNL1       -0.3794
     43 H          21.4852   72.6555    6.3338 H       1  UNL1        0.2105
@<TRIPOS>BOND
     1    15    16   ar
     2    15    20   ar
     3    15     6    1
     4    16    17   ar
     5    16    21    2
     6    17    18   ar
     7    17    23    1
     8    18    19   ar
     9    18    22    2
    10    19    20   ar
    11     6     7    1
    12     6    11    1
    13     7     8    1
    14     7     9    1
    15     8    13    1
    16     9    10    1
    17     9    12    1
    18    10    11    1
    19    10     5    1
    20    12    14    1
    21     5     4    1
    22     4     1    1
    23     1     2    2
    24     1     3    1
    25     1    24    1
    26    24    25    1
    27    25    26    2
    28    25    27    1
    29    25    28    1
    30    28    29    1
    31    29    30    1
    32    29    37    1
    33    30    31    1
    34    30    34    1
    35    31    32    1
    36    31    35    1
    37    32    33    1
    38    32    36    1
    39    33    41    1
    40    33    37    1
    41    41    42    1
    42    34    38    1
    43    35    39    1
    44    36    40    1
    45    42    43    1
@<TRIPOS>MOLECULE
GDU
 43 45 0 0 0
SMALL
GASTEIGER

@<TRIPOS>ATOM
      1 P          22.1017   70.9276   -2.4876 P.3     1  UNL1        0.2189
      2 O          21.4669   69.6286   -2.1727 O.2     1  UNL1       -0.5170
      3 O          23.5052   70.6719   -3.2345 O.3     1  UNL1       -0.4371
      4 O          21.1318   71.7811   -3.4456 O.3     1  UNL1       -0.3112
      5 C          20.1207   72.3485   -2.6111 C.3     1  UNL1        0.1811
      6 C          17.9168   71.4030   -5.2899 C.3     1  UNL1        0.2383
      7 C          18.0118   70.1378   -4.3992 C.3     1  UNL1        0.1895
      8 O          16.7991   69.3831   -4.4544 O.3     1  UNL1       -0.3779
      9 C          18.2196   70.7483   -2.9887 C.3     1  UNL1        0.1713
     10 C          18.7519   72.1659   -3.2692 C.3     1  UNL1        0.1764
     11 O          18.8731   72.3061   -4.6954 O.3     1  UNL1       -0.3308
     12 O          16.9797   70.8033   -2.2806 O.3     1  UNL1       -0.3794
     13 H          16.9235   68.6132   -3.8820 H       1  UNL1        0.2106
     14 H          16.6692   69.8924   -2.1883 H       1  UNL1        0.2105
     15 N          18.2896   71.0932   -6.6711 N.ar    1  UNL1       -0.2551
     16 C          17.3373   70.7595   -7.5600 C.ar    1  UNL1        0.3323
     17 N          17.6529   70.4736   -8.8369 N.ar    1  UNL1       -0.2743
     18 C          18.9363   70.5078   -9.2442 C.ar    1  UNL1        0.2626
     19 C          19.9506   70.8520   -8.3174 C.ar    1  UNL1        0.0795
     20 C          19.6060   71.1384   -7.0440 C.ar    1  UNL1        0.0869
     21 O          16.1751   70.7249   -7.2075 O.2     1  UNL1       -0.2464
     22 O          19.2234   70.2445  -10.3986 O.2     1  UNL1       -0.2670
     23 H          16.9522   70.2389   -9.4661 H       1  UNL1        0.1734
     24 O          22.3621   71.7414   -1.1230 O.3     1  UNL1       -0.2703
     25 P          21.9020   70.7842    0.0862 P.3     1  UNL1        0.2208
     26 O          20.9326   69.7859   -0.4167 O.2     1  UNL1       -0.5170
     27 O          23.1886   70.0257    0.6892 O.3     1  UNL1       -0.4371
     28 O          21.2126   71.6692    1.2402 O.3     1  UNL1       -0.2858
     29 C          22.2278   72.5216    1.7716 C.3     1  UNL1        0.2704
     30 C          22.0803   72.6025    3.2918 C.3     1  UNL1        0.1967
     31 C          20.6879   73.1441    3.6296 C.3     1  UNL1        0.1715
     32 C          20.4822   74.4670    2.8829 C.3     1  UNL1        0.1694
     33 C          20.7492   74.2439    1.3923 C.3     1  UNL1        0.1761
     34 O          22.2394   71.3005    3.8581 O.3     1  UNL1       -0.3775
     35 O          20.5869   73.3643    5.0380 O.3     1  UNL1       -0.3794
     36 O          21.3851   75.4490    3.3933 O.3     1  UNL1       -0.3794
     37 O          22.0992   73.8226    1.2029 O.3     1  UNL1       -0.3258
     38 H          23.1246   70.9968    3.6149 H       1  UNL1        0.2106
     39 H          20.7343   72.5113    5.4659 H       1  UNL1        0.2105
     40 H          21.1847   75.5521    4.3327 H       1  UNL1        0.2105
     41 C          20.5132   75.5512    0.6325 C.3     1  UNL1        0.1693
     42 O          19.5160   76.3201    1.3073 O.3     1  UNL1       -0.3794
     43 H          19.3979   77.1338    0.7982 H       1  UNL1        0.2105
@<TRIPOS>BOND
     1    15    16   ar
     2    15    20   ar
     3    15     6    1
     4    16    17   ar
     5    16    21    2
     6    17    18   ar
     7    17    23    1
     8    18    19   ar
     9    18    22    2
    10    19    20   ar
    11     6     7    1
    12     6    11    1
    13     7     8    1
    14     7     9    1
    15     8    13    1
    16     9    10    1
    17     9    12    1
    18    10    11    1
    19    10     5    1
    20    12    14    1
    21     5     4    1
    22     4     1    1
    23     1     2    2
    24     1     3    1
    25     1    24    1
    26    24    25    1
    27    25    26    2
    28    25    27    1
    29    25    28    1
    30    28    29    1
    31    29    30    1
    32    29    37    1
    33    30    31    1
    34    30    34    1
    35    31    32    1
    36    31    35    1
    37    32    33    1
    38    32    36    1
    39    33    41    1
    40    33    37    1
    41    41    42    1
    42    34    38    1
    43    35    39    1
    44    36    40    1
    45    42    43    1
@<TRIPOS>MOLECULE
GDU
 43 45 0 0 0
SMALL
GASTEIGER

@<TRIPOS>ATOM
      1 P          22.1031   70.5103   -0.3978 P.3     1  UNL1        0.2189
      2 O          21.3456   70.9834    0.7820 O.2     1  UNL1       -0.5170
      3 O          23.3176   69.5702    0.0860 O.3     1  UNL1       -0.4371
      4 O          21.1266   69.6716   -1.3621 O.3     1  UNL1       -0.3112
      5 C          21.2144   70.2660   -2.6581 C.3     1  UNL1        0.1811
      6 C          18.5850   70.8568   -5.0382 C.3     1  UNL1        0.2383
      7 C          18.2505   69.4733   -4.4243 C.3     1  UNL1        0.1895
      8 O          16.8384   69.2524   -4.4040 O.3     1  UNL1       -0.3779
      9 C          18.8091   69.6132   -2.9842 C.3     1  UNL1        0.1713
     10 C          19.8321   70.7595   -3.0894 C.3     1  UNL1        0.1764
     11 O          19.8702   71.1780   -4.4648 O.3     1  UNL1       -0.3308
     12 O          17.7617   69.9506   -2.0726 O.3     1  UNL1       -0.3794
     13 H          16.6984   68.3788   -4.0126 H       1  UNL1        0.2106
     14 H          17.1253   69.2232   -2.0957 H       1  UNL1        0.2105
     15 N          18.6787   70.7674   -6.4963 N.ar    1  UNL1       -0.2551
     16 C          17.5564   70.7539   -7.2370 C.ar    1  UNL1        0.3323
     17 N          17.6148   70.6759   -8.5795 N.ar    1  UNL1       -0.2743
     18 C          18.8052   70.5999   -9.2051 C.ar    1  UNL1        0.2626
     19 C          19.9956   70.6073   -8.4374 C.ar    1  UNL1        0.0795
     20 C          19.9085   70.6906   -7.0928 C.ar    1  UNL1        0.0869
     21 O          16.4753   70.8224   -6.6869 O.2     1  UNL1       -0.2464
     22 O          18.8590   70.5245  -10.4200 O.2     1  UNL1       -0.2670
     23 H          16.7949   70.6717   -9.0986 H       1  UNL1        0.1734
     24 O          22.6927   71.7765   -1.1988 O.3     1  UNL1       -0.2703
     25 P          22.0879   73.0938   -0.4997 P.3     1  UNL1        0.2208
     26 O          22.3304   74.2678   -1.3669 O.2     1  UNL1       -0.5170
     27 O          20.5031   72.9061   -0.2822 O.3     1  UNL1       -0.4371
     28 O          22.8005   73.3216    0.9252 O.3     1  UNL1       -0.2858
     29 C          22.3099   74.5596    1.4413 C.3     1  UNL1        0.2704
     30 C          23.4849   75.5026    1.7051 C.3     1  UNL1        0.1967
     31 C          24.4405   74.8414    2.7031 C.3     1  UNL1        0.1715
     32 C          23.6432   74.4292    3.9457 C.3     1  UNL1        0.1694
     33 C          22.4565   73.5653    3.5117 C.3     1  UNL1        0.1761
     34 O          24.1738   75.7630    0.4809 O.3     1  UNL1       -0.3775
     35 O          25.4650   75.7670    3.0722 O.3     1  UNL1       -0.3794
     36 O          23.1698   75.5967    4.6186 O.3     1  UNL1       -0.3794
     37 O          21.6005   74.3191    2.6544 O.3     1  UNL1       -0.3258
     38 H          23.5339   76.1713   -0.1180 H       1  UNL1        0.2106
     39 H          25.9309   76.0068    2.2612 H       1  UNL1        0.2105
     40 H          23.9484   76.1115    4.8674 H       1  UNL1        0.2105
     41 C          21.6730   73.1197    4.7484 C.3     1  UNL1        0.1693
     42 O          22.5631   73.0071    5.8602 O.3     1  UNL1       -0.3794
     43 H          22.0312   72.7257    6.6172 H       1  UNL1        0.2105
@<TRIPOS>BOND
     1    15    16   ar
     2    15    20   ar
     3    15     6    1
     4    16    17   ar
     5    16    21    2
     6    17    18   ar
     7    17    23    1
     8    18    19   ar
     9    18    22    2
    10    19    20   ar
    11     6     7    1
    12     6    11    1
    13     7     8    1
    14     7     9    1
    15     8    13    1
    16     9    10    1
    17     9    12    1
    18    10    11    1
    19    10     5    1
    20    12    14    1
    21     5     4    1
    22     4     1    1
    23     1     2    2
    24     1     3    1
    25     1    24    1
    26    24    25    1
    27    25    26    2
    28    25    27    1
    29    25    28    1
    30    28    29    1
    31    29    30    1
    32    29    37    1
    33    30    31    1
    34    30    34    1
    35    31    32    1
    36    31    35    1
    37    32    33    1
    38    32    36    1
    39    33    41    1
    40    33    37    1
    41    41    42    1
    42    34    38    1
    43    35    39    1
    44    36    40    1
    45    42    43    1
@<TRIPOS>MOLECULE
GDU
 43 45 0 0 0
SMALL
GASTEIGER

@<TRIPOS>ATOM
      1 P          22.0420   70.3969   -0.4305 P.3     1  UNL1        0.2189
      2 O          22.7063   69.1945    0.1193 O.2     1  UNL1       -0.5170
      3 O          23.0910   71.2267   -1.3273 O.3     1  UNL1       -0.4371
      4 O          20.7927   69.9516   -1.3403 O.3     1  UNL1       -0.3112
      5 C          20.9455   70.6050   -2.6014 C.3     1  UNL1        0.1811
      6 C          18.4090   71.0049   -5.1181 C.3     1  UNL1        0.2383
      7 C          18.0699   69.6554   -4.4349 C.3     1  UNL1        0.1895
      8 O          16.6616   69.4116   -4.4586 O.3     1  UNL1       -0.3779
      9 C          18.5659   69.8918   -2.9846 C.3     1  UNL1        0.1713
     10 C          19.5752   71.0473   -3.1179 C.3     1  UNL1        0.1764
     11 O          19.6642   71.3825   -4.5136 O.3     1  UNL1       -0.3308
     12 O          17.4766   70.2653   -2.1386 O.3     1  UNL1       -0.3794
     13 H          16.5185   68.5610   -4.0206 H       1  UNL1        0.2106
     14 H          16.8526   69.5269   -2.1430 H       1  UNL1        0.2105
     15 N          18.5646   70.8293   -6.5630 N.ar    1  UNL1       -0.2551
     16 C          17.4760   70.7962   -7.3518 C.ar    1  UNL1        0.3323
     17 N          17.5916   70.6394   -8.6836 N.ar    1  UNL1       -0.2743
     18 C          18.8063   70.5024   -9.2493 C.ar    1  UNL1        0.2626
     19 C          19.9615   70.5295   -8.4302 C.ar    1  UNL1        0.0795
     20 C          19.8173   70.6923   -7.0978 C.ar    1  UNL1        0.0869
     21 O          16.3736   70.9189   -6.8559 O.2     1  UNL1       -0.2464
     22 O          18.9116   70.3556  -10.4542 O.2     1  UNL1       -0.2670
     23 H          16.7954   70.6221   -9.2382 H       1  UNL1        0.1734
     24 O          21.5229   71.3229    0.7801 O.3     1  UNL1       -0.2703
     25 P          21.8377   72.8469    0.3700 P.3     1  UNL1        0.2208
     26 O          23.1456   72.9121   -0.3186 O.2     1  UNL1       -0.5170
     27 O          20.6847   73.3860   -0.6170 O.3     1  UNL1       -0.4371
     28 O          21.8806   73.7619    1.6933 O.3     1  UNL1       -0.2858
     29 C          22.6444   73.0484    2.6666 C.3     1  UNL1        0.2704
     30 C          21.7382   72.6496    3.8324 C.3     1  UNL1        0.1967
     31 C          21.1278   73.9140    4.4447 C.3     1  UNL1        0.1715
     32 C          22.2614   74.8822    4.8013 C.3     1  UNL1        0.1694
     33 C          23.1273   75.1134    3.5605 C.3     1  UNL1        0.1761
     34 O          20.6964   71.7947    3.3580 O.3     1  UNL1       -0.3775
     35 O          20.3967   73.5716    5.6240 O.3     1  UNL1       -0.3794
     36 O          23.0566   74.3223    5.8473 O.3     1  UNL1       -0.3794
     37 O          23.7034   73.8781    3.1385 O.3     1  UNL1       -0.3258
     38 H          21.1258   71.0173    2.9756 H       1  UNL1        0.2106
     39 H          19.7046   72.9545    5.3549 H       1  UNL1        0.2105
     40 H          22.4705   74.1888    6.6036 H       1  UNL1        0.2105
     41 C          24.2426   76.1059    3.8968 C.3     1  UNL1        0.1693
     42 O          25.4396   75.7243    3.2166 O.3     1  UNL1       -0.3794
     43 H          26.1156   76.3739    3.4540 H       1  UNL1        0.2105
@<TRIPOS>BOND
     1    15    16   ar
     2    15    20   ar
     3    15     6    1
     4    16    17   ar
     5    16    21    2
     6    17    18   ar
     7    17    23    1
     8    18    19   ar
     9    18    22    2
    10    19    20   ar
    11     6     7    1
    12     6    11    1
    13     7     8    1
    14     7     9    1
    15     8    13    1
    16     9    10    1
    17     9    12    1
    18    10    11    1
    19    10     5    1
    20    12    14    1
    21     5     4    1
    22     4     1    1
    23     1     2    2
    24     1     3    1
    25     1    24    1
    26    24    25    1
    27    25    26    2
    28    25    27    1
    29    25    28    1
    30    28    29    1
    31    29    30    1
    32    29    37    1
    33    30    31    1
    34    30    34    1
    35    31    32    1
    36    31    35    1
    37    32    33    1
    38    32    36    1
    39    33    41    1
    40    33    37    1
    41    41    42    1
    42    34    38    1
    43    35    39    1
    44    36    40    1
    45    42    43    1
@<TRIPOS>MOLECULE
GDU
 43 45 0 0 0
SMALL
GASTEIGER

@<TRIPOS>ATOM
      1 P          21.7526   70.3719   -0.3389 P.3     1  UNL1        0.2189
      2 O          22.2360   69.2347    0.4753 O.2     1  UNL1       -0.5170
      3 O          23.0084   71.1218   -1.0122 O.3     1  UNL1       -0.4371
      4 O          20.7712   69.8284   -1.4913 O.3     1  UNL1       -0.3112
      5 C          20.9299   70.6974   -2.6139 C.3     1  UNL1        0.1811
      6 C          18.4085   71.0151   -5.1572 C.3     1  UNL1        0.2383
      7 C          18.0963   69.6629   -4.4665 C.3     1  UNL1        0.1895
      8 O          16.6947   69.3841   -4.5015 O.3     1  UNL1       -0.3779
      9 C          18.5725   69.9227   -3.0136 C.3     1  UNL1        0.1713
     10 C          19.5541   71.1017   -3.1467 C.3     1  UNL1        0.1764
     11 O          19.6482   71.4283   -4.5441 O.3     1  UNL1       -0.3308
     12 O          17.4662   70.2757   -2.1808 O.3     1  UNL1       -0.3794
     13 H          16.5685   68.5336   -4.0581 H       1  UNL1        0.2106
     14 H          16.8607   69.5220   -2.1852 H       1  UNL1        0.2105
     15 N          18.5821   70.8322   -6.5992 N.ar    1  UNL1       -0.2551
     16 C          17.5019   70.7510   -7.3959 C.ar    1  UNL1        0.3323
     17 N          17.6340   70.5864   -8.7254 N.ar    1  UNL1       -0.2743
     18 C          18.8575   70.4901   -9.2803 C.ar    1  UNL1        0.2626
     19 C          20.0043   70.5681   -8.4527 C.ar    1  UNL1        0.0795
     20 C          19.8434   70.7376   -7.1231 C.ar    1  UNL1        0.0869
     21 O          16.3918   70.8367   -6.9098 O.2     1  UNL1       -0.2464
     22 O          18.9779   70.3363  -10.4830 O.2     1  UNL1       -0.2670
     23 H          16.8435   70.5342   -9.2859 H       1  UNL1        0.1734
     24 O          20.9550   71.4049    0.6040 O.3     1  UNL1       -0.2703
     25 P          21.9989   71.9270    1.7120 P.3     1  UNL1        0.2208
     26 O          22.9123   70.8251    2.0868 O.2     1  UNL1       -0.5170
     27 O          22.8545   73.1508    1.1083 O.3     1  UNL1       -0.4371
     28 O          21.1959   72.4262    3.0143 O.3     1  UNL1       -0.2858
     29 C          21.4245   73.8313    3.1294 C.3     1  UNL1        0.2704
     30 C          22.2721   74.1092    4.3719 C.3     1  UNL1        0.1967
     31 C          21.5367   73.5779    5.6062 C.3     1  UNL1        0.1715
     32 C          20.1260   74.1769    5.6316 C.3     1  UNL1        0.1694
     33 C          19.4400   73.8919    4.2933 C.3     1  UNL1        0.1761
     34 O          23.5351   73.4532    4.2462 O.3     1  UNL1       -0.3775
     35 O          22.2443   73.9594    6.7878 O.3     1  UNL1       -0.3794
     36 O          20.2095   75.5874    5.8404 O.3     1  UNL1       -0.3794
     37 O          20.1738   74.5073    3.2356 O.3     1  UNL1       -0.3258
     38 H          23.9584   73.8124    3.4546 H       1  UNL1        0.2106
     39 H          23.1264   73.5720    6.7231 H       1  UNL1        0.2105
     40 H          20.6520   75.7190    6.6891 H       1  UNL1        0.2105
     41 C          18.0177   74.4562    4.3208 C.3     1  UNL1        0.1693
     42 O          17.5058   74.3906    5.6529 O.3     1  UNL1       -0.3794
     43 H          16.6105   74.7555    5.6270 H       1  UNL1        0.2105
@<TRIPOS>BOND
     1    15    16   ar
     2    15    20   ar
     3    15     6    1
     4    16    17   ar
     5    16    21    2
     6    17    18   ar
     7    17    23    1
     8    18    19   ar
     9    18    22    2
    10    19    20   ar
    11     6     7    1
    12     6    11    1
    13     7     8    1
    14     7     9    1
    15     8    13    1
    16     9    10    1
    17     9    12    1
    18    10    11    1
    19    10     5    1
    20    12    14    1
    21     5     4    1
    22     4     1    1
    23     1     2    2
    24     1     3    1
    25     1    24    1
    26    24    25    1
    27    25    26    2
    28    25    27    1
    29    25    28    1
    30    28    29    1
    31    29    30    1
    32    29    37    1
    33    30    31    1
    34    30    34    1
    35    31    32    1
    36    31    35    1
    37    32    33    1
    38    32    36    1
    39    33    41    1
    40    33    37    1
    41    41    42    1
    42    34    38    1
    43    35    39    1
    44    36    40    1
    45    42    43    1
@<TRIPOS>MOLECULE
GDU
 43 45 0 0 0
SMALL
GASTEIGER

@<TRIPOS>ATOM
      1 P          22.1020   73.9394   -6.7258 P.3     1  UNL1        0.2189
      2 O          22.8352   72.6876   -7.0175 O.2     1  UNL1       -0.5170
      3 O          23.1459   75.1612   -6.6233 O.3     1  UNL1       -0.4371
      4 O          21.0479   74.2316   -7.9050 O.3     1  UNL1       -0.3112
      5 C          21.3207   73.2922   -8.9460 C.3     1  UNL1        0.1811
      6 C          18.6712   71.1895   -7.7271 C.3     1  UNL1        0.2383
      7 C          18.0049   72.5735   -7.9354 C.3     1  UNL1        0.1895
      8 O          16.6260   72.4285   -8.2833 O.3     1  UNL1       -0.3779
      9 C          18.8176   73.1497   -9.1241 C.3     1  UNL1        0.1713
     10 C          20.1303   72.3447   -9.1050 C.3     1  UNL1        0.1764
     11 O          20.0682   71.4460   -7.9840 O.3     1  UNL1       -0.3308
     12 O          18.1168   72.9476  -10.3530 O.3     1  UNL1       -0.3794
     13 H          16.2720   73.3214   -8.3981 H       1  UNL1        0.2106
     14 H          17.2801   73.4265  -10.2803 H       1  UNL1        0.2105
     15 N          18.4766   70.7226   -6.3534 N.ar    1  UNL1       -0.2551
     16 C          17.3266   70.1150   -6.0121 C.ar    1  UNL1        0.3323
     17 N          17.1239   69.6732   -4.7569 N.ar    1  UNL1       -0.2743
     18 C          18.0717   69.8427   -3.8150 C.ar    1  UNL1        0.2626
     19 C          19.2858   70.4862   -4.1586 C.ar    1  UNL1        0.0795
     20 C          19.4648   70.9157   -5.4259 C.ar    1  UNL1        0.0869
     21 O          16.4626   69.9545   -6.8511 O.2     1  UNL1       -0.2464
     22 O          17.8872   69.4474   -2.6774 O.2     1  UNL1       -0.2670
     23 H          16.2895   69.2330   -4.5292 H       1  UNL1        0.1734
     24 O          21.3172   73.7873   -5.3282 O.3     1  UNL1       -0.2703
     25 P          22.4345   73.6744   -4.1755 P.3     1  UNL1        0.2208
     26 O          23.5170   72.7715   -4.6248 O.2     1  UNL1       -0.5170
     27 O          23.0444   75.1345   -3.8748 O.3     1  UNL1       -0.4371
     28 O          21.7662   73.0868   -2.8345 O.3     1  UNL1       -0.2858
     29 C          22.8363   72.6620   -1.9894 C.3     1  UNL1        0.2704
     30 C          22.6034   71.2117   -1.5631 C.3     1  UNL1        0.1967
     31 C          21.2631   71.1173   -0.8275 C.3     1  UNL1        0.1715
     32 C          21.2569   72.1414    0.3130 C.3     1  UNL1        0.1694
     33 C          21.5902   73.5226   -0.2564 C.3     1  UNL1        0.1761
     34 O          22.5772   70.3716   -2.7184 O.3     1  UNL1       -0.3775
     35 O          21.0993   69.8011   -0.2952 O.3     1  UNL1       -0.3794
     36 O          22.2316   71.7741    1.2902 O.3     1  UNL1       -0.3794
     37 O          22.8927   73.5017   -0.8385 O.3     1  UNL1       -0.3258
     38 H          23.4356   70.4680   -3.1529 H       1  UNL1        0.2106
     39 H          21.1213   69.1917   -1.0438 H       1  UNL1        0.2105
     40 H          21.9854   70.8985    1.6158 H       1  UNL1        0.2105
     41 C          21.5529   74.5588    0.8691 C.3     1  UNL1        0.1693
     42 O          22.8752   74.7657    1.3690 O.3     1  UNL1       -0.3794
     43 H          22.8080   75.4242    2.0740 H       1  UNL1        0.2105
@<TRIPOS>BOND
     1    15    16   ar
     2    15    20   ar
     3    15     6    1
     4    16    17   ar
     5    16    21    2
     6    17    18   ar
     7    17    23    1
     8    18    19   ar
     9    18    22    2
    10    19    20   ar
    11     6     7    1
    12     6    11    1
    13     7     8    1
    14     7     9    1
    15     8    13    1
    16     9    10    1
    17     9    12    1
    18    10    11    1
    19    10     5    1
    20    12    14    1
    21     5     4    1
    22     4     1    1
    23     1     2    2
    24     1     3    1
    25     1    24    1
    26    24    25    1
    27    25    26    2
    28    25    27    1
    29    25    28    1
    30    28    29    1
    31    29    30    1
    32    29    37    1
    33    30    31    1
    34    30    34    1
    35    31    32    1
    36    31    35    1
    37    32    33    1
    38    32    36    1
    39    33    41    1
    40    33    37    1
    41    41    42    1
    42    34    38    1
    43    35    39    1
    44    36    40    1
    45    42    43    1
@<TRIPOS>MOLECULE
GDU
 43 45 0 0 0
SMALL
GASTEIGER

@<TRIPOS>ATOM
      1 P          21.9771   70.3525   -0.0041 P.3     1  UNL1        0.2189
      2 O          23.0462   71.2305   -0.5291 O.2     1  UNL1       -0.5170
      3 O          22.5794   68.8872    0.2842 O.3     1  UNL1       -0.4371
      4 O          21.3957   70.9719    1.3616 O.3     1  UNL1       -0.3112
      5 C          22.5090   71.5030    2.0820 C.3     1  UNL1        0.1811
      6 C          20.8034   74.4619    3.2057 C.3     1  UNL1        0.2383
      7 C          21.7962   74.1274    4.3483 C.3     1  UNL1        0.1895
      8 O          22.2262   75.3167    5.0147 O.3     1  UNL1       -0.3779
      9 C          22.9701   73.4704    3.5767 C.3     1  UNL1        0.1713
     10 C          22.3366   73.0137    2.2495 C.3     1  UNL1        0.1764
     11 O          20.9377   73.3426    2.3043 O.3     1  UNL1       -0.3308
     12 O          24.0087   74.4232    3.3414 O.3     1  UNL1       -0.3794
     13 H          22.8385   75.0404    5.7108 H       1  UNL1        0.2106
     14 H          24.3234   74.7143    4.2080 H       1  UNL1        0.2105
     15 N          19.4350   74.5505    3.7179 N.ar    1  UNL1       -0.2551
     16 C          18.5298   75.3086    3.0743 C.ar    1  UNL1        0.3323
     17 N          17.2641   75.4042    3.5223 N.ar    1  UNL1       -0.2743
     18 C          16.8849   74.7460    4.6346 C.ar    1  UNL1        0.2626
     19 C          17.8292   73.9483    5.3261 C.ar    1  UNL1        0.0795
     20 C          19.0908   73.8665    4.8527 C.ar    1  UNL1        0.0869
     21 O          18.8570   75.9078    2.0694 O.2     1  UNL1       -0.2464
     22 O          15.7407   74.8358    5.0436 O.2     1  UNL1       -0.2670
     23 H          16.6228   75.9525    3.0429 H       1  UNL1        0.1734
     24 O          20.7940   70.2406   -1.0906 O.3     1  UNL1       -0.2703
     25 P          21.3124   70.9800   -2.4227 P.3     1  UNL1        0.2208
     26 O          21.5813   72.4038   -2.1235 O.2     1  UNL1       -0.5170
     27 O          22.6667   70.2748   -2.9351 O.3     1  UNL1       -0.4371
     28 O          20.1873   70.8746   -3.5686 O.3     1  UNL1       -0.2858
     29 C          18.9581   71.3075   -2.9843 C.3     1  UNL1        0.2704
     30 C          17.9198   70.1899   -3.0961 C.3     1  UNL1        0.1967
     31 C          17.7221   69.8391   -4.5740 C.3     1  UNL1        0.1715
     32 C          17.3845   71.1224   -5.3414 C.3     1  UNL1        0.1694
     33 C          18.4653   72.1693   -5.0606 C.3     1  UNL1        0.1761
     34 O          18.3783   69.0379   -2.3863 O.3     1  UNL1       -0.3775
     35 O          16.6512   68.9020   -4.7060 O.3     1  UNL1       -0.3794
     36 O          16.1135   71.6142   -4.9140 O.3     1  UNL1       -0.3794
     37 O          18.4932   72.4701   -3.6661 O.3     1  UNL1       -0.3258
     38 H          18.4956   69.3063   -1.4649 H       1  UNL1        0.2106
     39 H          16.9008   68.1186   -4.1997 H       1  UNL1        0.2105
     40 H          15.4670   70.9221   -5.1045 H       1  UNL1        0.2105
     41 C          18.1558   73.4436   -5.8494 C.3     1  UNL1        0.1693
     42 O          17.4719   73.1015   -7.0562 O.3     1  UNL1       -0.3794
     43 H          17.2951   73.9302   -7.5223 H       1  UNL1        0.2105
@<TRIPOS>BOND
     1    15    16   ar
     2    15    20   ar
     3    15     6    1
     4    16    17   ar
     5    16    21    2
     6    17    18   ar
     7    17    23    1
     8    18    19   ar
     9    18    22    2
    10    19    20   ar
    11     6     7    1
    12     6    11    1
    13     7     8    1
    14     7     9    1
    15     8    13    1
    16     9    10    1
    17     9    12    1
    18    10    11    1
    19    10     5    1
    20    12    14    1
    21     5     4    1
    22     4     1    1
    23     1     2    2
    24     1     3    1
    25     1    24    1
    26    24    25    1
    27    25    26    2
    28    25    27    1
    29    25    28    1
    30    28    29    1
    31    29    30    1
    32    29    37    1
    33    30    31    1
    34    30    34    1
    35    31    32    1
    36    31    35    1
    37    32    33    1
    38    32    36    1
    39    33    41    1
    40    33    37    1
    41    41    42    1
    42    34    38    1
    43    35    39    1
    44    36    40    1
    45    42    43    1
@<TRIPOS>MOLECULE
GDU
 43 45 0 0 0
SMALL
GASTEIGER

@<TRIPOS>ATOM
      1 P          21.9985   70.3189   -0.3450 P.3     1  UNL1        0.2189
      2 O          21.6281   69.2545    0.6139 O.2     1  UNL1       -0.5170
      3 O          23.5992   70.3535   -0.5162 O.3     1  UNL1       -0.4371
      4 O          21.3128   70.0210   -1.7691 O.3     1  UNL1       -0.3112
      5 C          21.0122   71.2879   -2.3566 C.3     1  UNL1        0.1811
      6 C          18.4587   71.0383   -4.8756 C.3     1  UNL1        0.2383
      7 C          18.6006   69.5976   -4.3212 C.3     1  UNL1        0.1895
      8 O          17.3558   68.8987   -4.3932 O.3     1  UNL1       -0.3779
      9 C          19.0058   69.8554   -2.8466 C.3     1  UNL1        0.1713
     10 C          19.5668   71.2895   -2.8578 C.3     1  UNL1        0.1764
     11 O          19.5214   71.7591   -4.2163 O.3     1  UNL1       -0.3308
     12 O          17.8645   69.7642   -1.9916 O.3     1  UNL1       -0.3794
     13 H          17.5119   68.0136   -4.0351 H       1  UNL1        0.2106
     14 H          17.5246   68.8627   -2.0733 H       1  UNL1        0.2105
     15 N          18.6469   71.0556   -6.3271 N.ar    1  UNL1       -0.2551
     16 C          19.8003   71.5141   -6.8446 C.ar    1  UNL1        0.3323
     17 N          20.0001   71.5375   -8.1756 N.ar    1  UNL1       -0.2743
     18 C          19.0382   71.1085   -9.0152 C.ar    1  UNL1        0.2626
     19 C          17.8159   70.6283   -8.4846 C.ar    1  UNL1        0.0795
     20 C          17.6434   70.6118   -7.1457 C.ar    1  UNL1        0.0869
     21 O          20.6774   71.9039   -6.0997 O.2     1  UNL1       -0.2464
     22 O          19.2163   71.1338  -10.2202 O.2     1  UNL1       -0.2670
     23 H          20.8404   71.8677   -8.5315 H       1  UNL1        0.1734
     24 O          21.4886   71.7415    0.2105 O.3     1  UNL1       -0.2703
     25 P          22.0602   71.8899    1.7076 P.3     1  UNL1        0.2208
     26 O          20.9325   71.9218    2.6649 O.2     1  UNL1       -0.5170
     27 O          23.0140   70.6365    2.0442 O.3     1  UNL1       -0.4371
     28 O          22.9060   73.2538    1.8275 O.3     1  UNL1       -0.2858
     29 C          22.2188   74.2377    1.0532 C.3     1  UNL1        0.2704
     30 C          23.2187   74.9697    0.1568 C.3     1  UNL1        0.1967
     31 C          24.2898   75.6238    1.0350 C.3     1  UNL1        0.1715
     32 C          23.5955   76.4969    2.0863 C.3     1  UNL1        0.1694
     33 C          22.5676   75.6478    2.8383 C.3     1  UNL1        0.1761
     34 O          23.8327   74.0381   -0.7357 O.3     1  UNL1       -0.3775
     35 O          25.1463   76.4324    0.2255 O.3     1  UNL1       -0.3794
     36 O          22.9398   77.5901    1.4421 O.3     1  UNL1       -0.3794
     37 O          21.5811   75.1668    1.9265 O.3     1  UNL1       -0.3258
     38 H          23.1225   73.6465   -1.2621 H       1  UNL1        0.2106
     39 H          25.5508   75.8461   -0.4263 H       1  UNL1        0.2105
     40 H          23.6226   78.0919    0.9781 H       1  UNL1        0.2105
     41 C          21.8925   76.5015    3.9141 C.3     1  UNL1        0.1693
     42 O          20.7313   77.1272    3.3652 O.3     1  UNL1       -0.3794
     43 H          20.3358   77.6537    4.0735 H       1  UNL1        0.2105
@<TRIPOS>BOND
     1    15    16   ar
     2    15    20   ar
     3    15     6    1
     4    16    17   ar
     5    16    21    2
     6    17    18   ar
     7    17    23    1
     8    18    19   ar
     9    18    22    2
    10    19    20   ar
    11     6     7    1
    12     6    11    1
    13     7     8    1
    14     7     9    1
    15     8    13    1
    16     9    10    1
    17     9    12    1
    18    10    11    1
    19    10     5    1
    20    12    14    1
    21     5     4    1
    22     4     1    1
    23     1     2    2
    24     1     3    1
    25     1    24    1
    26    24    25    1
    27    25    26    2
    28    25    27    1
    29    25    28    1
    30    28    29    1
    31    29    30    1
    32    29    37    1
    33    30    31    1
    34    30    34    1
    35    31    32    1
    36    31    35    1
    37    32    33    1
    38    32    36    1
    39    33    41    1
    40    33    37    1
    41    41    42    1
    42    34    38    1
    43    35    39    1
    44    36    40    1
    45    42    43    1
@<TRIPOS>MOLECULE
GDU
 43 45 0 0 0
SMALL
GASTEIGER

@<TRIPOS>ATOM
      1 P          22.1743   70.5768   -0.3622 P.3     1  UNL1        0.2189
      2 O          23.4527   70.2963   -1.0525 O.2     1  UNL1       -0.5170
      3 O          21.9954   69.5569    0.8711 O.3     1  UNL1       -0.4371
      4 O          22.1813   72.0881    0.1879 O.3     1  UNL1       -0.3112
      5 C          21.0298   72.2305    1.0212 C.3     1  UNL1        0.1811
      6 C          23.0135   73.6670    3.6534 C.3     1  UNL1        0.2383
      7 C          21.7416   74.5514    3.5978 C.3     1  UNL1        0.1895
      8 O          21.4285   75.0761    4.8901 O.3     1  UNL1       -0.3779
      9 C          20.6617   73.5387    3.1356 C.3     1  UNL1        0.1713
     10 C          21.4693   72.4055    2.4760 C.3     1  UNL1        0.1764
     11 O          22.8568   72.7803    2.5253 O.3     1  UNL1       -0.3308
     12 O          19.9236   73.0489    4.2569 O.3     1  UNL1       -0.3794
     13 H          20.6315   75.6146    4.7868 H       1  UNL1        0.2106
     14 H          19.4890   73.8121    4.6611 H       1  UNL1        0.2105
     15 N          24.2191   74.4836    3.5041 N.ar    1  UNL1       -0.2551
     16 C          24.4635   75.1047    2.3366 C.ar    1  UNL1        0.3323
     17 N          25.5628   75.8643    2.1743 N.ar    1  UNL1       -0.2743
     18 C          26.4456   76.0069    3.1815 C.ar    1  UNL1        0.2626
     19 C          26.2042   75.3539    4.4151 C.ar    1  UNL1        0.0795
     20 C          25.0917   74.6016    4.5523 C.ar    1  UNL1        0.0869
     21 O          23.6760   74.9858    1.4191 O.2     1  UNL1       -0.2464
     22 O          27.4434   76.6904    3.0340 O.2     1  UNL1       -0.2670
     23 H          25.7211   76.3088    1.3263 H       1  UNL1        0.1734
     24 O          20.9544   70.3861   -1.3956 O.3     1  UNL1       -0.2703
     25 P          21.4032   71.0744   -2.7794 P.3     1  UNL1        0.2208
     26 O          21.5544   72.5324   -2.5786 O.2     1  UNL1       -0.5170
     27 O          22.8090   70.4504   -3.2576 O.3     1  UNL1       -0.4371
     28 O          20.2853   70.7996   -3.9040 O.3     1  UNL1       -0.2858
     29 C          19.0856   71.4352   -3.4606 C.3     1  UNL1        0.2704
     30 C          17.9611   70.4015   -3.3815 C.3     1  UNL1        0.1967
     31 C          17.7617   69.7749   -4.7650 C.3     1  UNL1        0.1715
     32 C          17.5445   70.8982   -5.7850 C.3     1  UNL1        0.1694
     33 C          18.7026   71.8939   -5.6830 C.3     1  UNL1        0.1761
     34 O          18.3105   69.3852   -2.4400 O.3     1  UNL1       -0.3775
     35 O          16.6197   68.9158   -4.7429 O.3     1  UNL1       -0.3794
     36 O          16.3108   71.5628   -5.5085 O.3     1  UNL1       -0.3794
     37 O          18.7303   72.4679   -4.3770 O.3     1  UNL1       -0.3258
     38 H          18.4330   69.8248   -1.5876 H       1  UNL1        0.2106
     39 H          16.7950   68.2343   -4.0817 H       1  UNL1        0.2105
     40 H          15.6131   70.8983   -5.5783 H       1  UNL1        0.2105
     41 C          18.5131   73.0021   -6.7214 C.3     1  UNL1        0.1693
     42 O          17.8066   72.4816   -7.8487 O.3     1  UNL1       -0.3794
     43 H          17.7076   73.2097   -8.4775 H       1  UNL1        0.2105
@<TRIPOS>BOND
     1    15    16   ar
     2    15    20   ar
     3    15     6    1
     4    16    17   ar
     5    16    21    2
     6    17    18   ar
     7    17    23    1
     8    18    19   ar
     9    18    22    2
    10    19    20   ar
    11     6     7    1
    12     6    11    1
    13     7     8    1
    14     7     9    1
    15     8    13    1
    16     9    10    1
    17     9    12    1
    18    10    11    1
    19    10     5    1
    20    12    14    1
    21     5     4    1
    22     4     1    1
    23     1     2    2
    24     1     3    1
    25     1    24    1
    26    24    25    1
    27    25    26    2
    28    25    27    1
    29    25    28    1
    30    28    29    1
    31    29    30    1
    32    29    37    1
    33    30    31    1
    34    30    34    1
    35    31    32    1
    36    31    35    1
    37    32    33    1
    38    32    36    1
    39    33    41    1
    40    33    37    1
    41    41    42    1
    42    34    38    1
    43    35    39    1
    44    36    40    1
    45    42    43    1
@<TRIPOS>MOLECULE
GDU
 43 45 0 0 0
SMALL
GASTEIGER

@<TRIPOS>ATOM
      1 P          22.7890   72.0697   -3.6498 P.3     1  UNL1        0.2189
      2 O          23.7689   72.9194   -4.3620 O.2     1  UNL1       -0.5170
      3 O          23.4910   70.6855   -3.2207 O.3     1  UNL1       -0.4371
      4 O          22.2677   72.8369   -2.3358 O.3     1  UNL1       -0.3112
      5 C          22.4129   71.9297   -1.2420 C.3     1  UNL1        0.1811
      6 C          21.1180   73.1978    1.8632 C.3     1  UNL1        0.2383
      7 C          20.8757   74.3410    0.8448 C.3     1  UNL1        0.1895
      8 O          19.7098   75.0927    1.1898 O.3     1  UNL1       -0.3779
      9 C          20.6583   73.5584   -0.4764 C.3     1  UNL1        0.1713
     10 C          21.3118   72.1893   -0.2123 C.3     1  UNL1        0.1764
     11 O          21.8784   72.2302    1.1089 O.3     1  UNL1       -0.3308
     12 O          19.2627   73.4106   -0.7457 O.3     1  UNL1       -0.3794
     13 H          19.6161   75.7848    0.5204 H       1  UNL1        0.2106
     14 H          18.9002   74.3016   -0.8425 H       1  UNL1        0.2105
     15 N          21.8901   73.6803    3.0095 N.ar    1  UNL1       -0.2551
     16 C          21.2532   74.0480    4.1353 C.ar    1  UNL1        0.3323
     17 N          21.9397   74.4918    5.2047 N.ar    1  UNL1       -0.2743
     18 C          23.2827   74.5843    5.1600 C.ar    1  UNL1        0.2626
     19 C          23.9666   74.2059    3.9788 C.ar    1  UNL1        0.0795
     20 C          23.2539   73.7602    2.9224 C.ar    1  UNL1        0.0869
     21 O          20.0420   73.9696    4.1907 O.2     1  UNL1       -0.2464
     22 O          23.9046   74.9904    6.1259 O.2     1  UNL1       -0.2670
     23 H          21.4640   74.7489    6.0106 H       1  UNL1        0.1734
     24 O          21.5430   71.7593   -4.6213 O.3     1  UNL1       -0.2703
     25 P          20.8065   73.1631   -4.8985 P.3     1  UNL1        0.2208
     26 O          19.8443   73.4388   -3.8089 O.2     1  UNL1       -0.5170
     27 O          21.9027   74.3417   -4.9567 O.3     1  UNL1       -0.4371
     28 O          20.0229   73.0911   -6.3024 O.3     1  UNL1       -0.2858
     29 C          19.6087   71.7356   -6.4774 C.3     1  UNL1        0.2704
     30 C          19.6848   71.3673   -7.9599 C.3     1  UNL1        0.1967
     31 C          18.7829   72.3155   -8.7561 C.3     1  UNL1        0.1715
     32 C          17.3768   72.2812   -8.1469 C.3     1  UNL1        0.1694
     33 C          17.4757   72.5824   -6.6494 C.3     1  UNL1        0.1761
     34 O          21.0333   71.4918   -8.4154 O.3     1  UNL1       -0.3775
     35 O          18.7281   71.8934  -10.1204 O.3     1  UNL1       -0.3794
     36 O          16.8028   70.9880   -8.3422 O.3     1  UNL1       -0.3794
     37 O          18.2705   71.5851   -6.0093 O.3     1  UNL1       -0.3258
     38 H          21.5647   70.8842   -7.8832 H       1  UNL1        0.2106
     39 H          19.6324   71.9190  -10.4579 H       1  UNL1        0.2105
     40 H          16.7656   70.8395   -9.2961 H       1  UNL1        0.2105
     41 C          16.0729   72.5844   -6.0376 C.3     1  UNL1        0.1693
     42 O          16.0376   71.6875   -4.9262 O.3     1  UNL1       -0.3794
     43 H          15.1391   71.7188   -4.5697 H       1  UNL1        0.2105
@<TRIPOS>BOND
     1    15    16   ar
     2    15    20   ar
     3    15     6    1
     4    16    17   ar
     5    16    21    2
     6    17    18   ar
     7    17    23    1
     8    18    19   ar
     9    18    22    2
    10    19    20   ar
    11     6     7    1
    12     6    11    1
    13     7     8    1
    14     7     9    1
    15     8    13    1
    16     9    10    1
    17     9    12    1
    18    10    11    1
    19    10     5    1
    20    12    14    1
    21     5     4    1
    22     4     1    1
    23     1     2    2
    24     1     3    1
    25     1    24    1
    26    24    25    1
    27    25    26    2
    28    25    27    1
    29    25    28    1
    30    28    29    1
    31    29    30    1
    32    29    37    1
    33    30    31    1
    34    30    34    1
    35    31    32    1
    36    31    35    1
    37    32    33    1
    38    32    36    1
    39    33    41    1
    40    33    37    1
    41    41    42    1
    42    34    38    1
    43    35    39    1
    44    36    40    1
    45    42    43    1
@<TRIPOS>MOLECULE
GDU
 43 45 0 0 0
SMALL
GASTEIGER

@<TRIPOS>ATOM
      1 P          22.4089   71.1287   -1.8213 P.3     1  UNL1        0.2189
      2 O          21.8700   69.8689   -1.2627 O.2     1  UNL1       -0.5170
      3 O          23.4976   70.7892   -2.9582 O.3     1  UNL1       -0.4371
      4 O          21.2105   71.9867   -2.4651 O.3     1  UNL1       -0.3112
      5 C          20.6694   71.2060   -3.5320 C.3     1  UNL1        0.1811
      6 C          17.2223   71.3212   -4.5475 C.3     1  UNL1        0.2383
      7 C          17.6738   69.8730   -4.8668 C.3     1  UNL1        0.1895
      8 O          16.5815   68.9593   -4.7430 O.3     1  UNL1       -0.3779
      9 C          18.7380   69.6149   -3.7686 C.3     1  UNL1        0.1713
     10 C          19.1649   71.0256   -3.3222 C.3     1  UNL1        0.1764
     11 O          18.4423   71.9703   -4.1307 O.3     1  UNL1       -0.3308
     12 O          18.1654   68.8899   -2.6785 O.3     1  UNL1       -0.3794
     13 H          16.9275   68.0809   -4.9540 H       1  UNL1        0.2106
     14 H          17.8648   68.0421   -3.0331 H       1  UNL1        0.2105
     15 N          16.6755   71.9683   -5.7413 N.ar    1  UNL1       -0.2551
     16 C          17.0399   71.5348   -6.9609 C.ar    1  UNL1        0.3323
     17 N          16.5491   72.1101   -8.0745 N.ar    1  UNL1       -0.2743
     18 C          15.6878   73.1417   -7.9839 C.ar    1  UNL1        0.2626
     19 C          15.2995   73.6127   -6.7058 C.ar    1  UNL1        0.0795
     20 C          15.8035   73.0148   -5.6053 C.ar    1  UNL1        0.0869
     21 O          17.8157   70.6049   -7.0585 O.2     1  UNL1       -0.2464
     22 O          15.2468   73.6662   -8.9913 O.2     1  UNL1       -0.2670
     23 H          16.8197   71.7815   -8.9466 H       1  UNL1        0.1734
     24 O          23.1088   71.9792   -0.6469 O.3     1  UNL1       -0.2703
     25 P          22.1062   71.9499    0.6116 P.3     1  UNL1        0.2208
     26 O          20.7148   72.1175    0.1375 O.2     1  UNL1       -0.5170
     27 O          22.2459   70.5390    1.3760 O.3     1  UNL1       -0.4371
     28 O          22.4774   73.1456    1.6228 O.3     1  UNL1       -0.2858
     29 C          22.7542   72.5469    2.8896 C.3     1  UNL1        0.2704
     30 C          21.5710   72.7772    3.8310 C.3     1  UNL1        0.1967
     31 C          21.3410   74.2839    3.9835 C.3     1  UNL1        0.1715
     32 C          22.6570   74.9390    4.4177 C.3     1  UNL1        0.1694
     33 C          23.7583   74.5461    3.4299 C.3     1  UNL1        0.1761
     34 O          20.4002   72.1655    3.2866 O.3     1  UNL1       -0.3775
     35 O          20.3360   74.5185    4.9722 O.3     1  UNL1       -0.3794
     36 O          23.0033   74.4920    5.7293 O.3     1  UNL1       -0.3794
     37 O          23.9324   73.1299    3.4414 O.3     1  UNL1       -0.3258
     38 H          20.5924   71.2217    3.2015 H       1  UNL1        0.2106
     39 H          19.5327   74.0802    4.6642 H       1  UNL1        0.2105
     40 H          22.2812   74.7554    6.3145 H       1  UNL1        0.2105
     41 C          25.0697   75.2229    3.8350 C.3     1  UNL1        0.1693
     42 O          25.6991   74.4609    4.8666 O.3     1  UNL1       -0.3794
     43 H          26.5201   74.9197    5.0921 H       1  UNL1        0.2105
@<TRIPOS>BOND
     1    15    16   ar
     2    15    20   ar
     3    15     6    1
     4    16    17   ar
     5    16    21    2
     6    17    18   ar
     7    17    23    1
     8    18    19   ar
     9    18    22    2
    10    19    20   ar
    11     6     7    1
    12     6    11    1
    13     7     8    1
    14     7     9    1
    15     8    13    1
    16     9    10    1
    17     9    12    1
    18    10    11    1
    19    10     5    1
    20    12    14    1
    21     5     4    1
    22     4     1    1
    23     1     2    2
    24     1     3    1
    25     1    24    1
    26    24    25    1
    27    25    26    2
    28    25    27    1
    29    25    28    1
    30    28    29    1
    31    29    30    1
    32    29    37    1
    33    30    31    1
    34    30    34    1
    35    31    32    1
    36    31    35    1
    37    32    33    1
    38    32    36    1
    39    33    41    1
    40    33    37    1
    41    41    42    1
    42    34    38    1
    43    35    39    1
    44    36    40    1
    45    42    43    1
@<TRIPOS>MOLECULE
GDU
 43 45 0 0 0
SMALL
GASTEIGER

@<TRIPOS>ATOM
      1 P          19.4965   71.5290   -3.6840 P.3     1  UNL1        0.2189
      2 O          19.2124   72.8975   -3.1981 O.2     1  UNL1       -0.5170
      3 O          19.1560   70.4660   -2.5234 O.3     1  UNL1       -0.4371
      4 O          18.5918   71.2197   -4.9773 O.3     1  UNL1       -0.3112
      5 C          19.3897   70.4305   -5.8612 C.3     1  UNL1        0.1811
      6 C          18.0589   72.6049   -8.3966 C.3     1  UNL1        0.2383
      7 C          19.2842   73.3690   -7.8327 C.3     1  UNL1        0.1895
      8 O          19.8839   74.1859   -8.8407 O.3     1  UNL1       -0.3779
      9 C          20.2304   72.2097   -7.4249 C.3     1  UNL1        0.1713
     10 C          19.2939   70.9959   -7.2794 C.3     1  UNL1        0.1764
     11 O          17.9542   71.4525   -7.5338 O.3     1  UNL1       -0.3308
     12 O          21.2052   71.9787   -8.4438 O.3     1  UNL1       -0.3794
     13 H          20.6360   74.6320   -8.4271 H       1  UNL1        0.2106
     14 H          21.7203   72.7925   -8.5283 H       1  UNL1        0.2105
     15 N          16.8507   73.4267   -8.3086 N.ar    1  UNL1       -0.2551
     16 C          16.4911   74.1974   -9.3502 C.ar    1  UNL1        0.3323
     17 N          15.3829   74.9596   -9.2964 N.ar    1  UNL1       -0.2743
     18 C          14.6178   74.9698   -8.1879 C.ar    1  UNL1        0.2626
     19 C          14.9875   74.1674   -7.0808 C.ar    1  UNL1        0.0795
     20 C          16.1014   73.4092   -7.1630 C.ar    1  UNL1        0.0869
     21 O          17.1711   74.1983  -10.3570 O.2     1  UNL1       -0.2464
     22 O          13.6172   75.6631   -8.1364 O.2     1  UNL1       -0.2670
     23 H          15.1361   75.5065  -10.0591 H       1  UNL1        0.1734
     24 O          21.0537   71.4125   -4.0764 O.3     1  UNL1       -0.2703
     25 P          21.8074   70.7679   -2.8089 P.3     1  UNL1        0.2208
     26 O          21.2992   69.3977   -2.5775 O.2     1  UNL1       -0.5170
     27 O          23.3907   70.7106   -3.0984 O.3     1  UNL1       -0.4371
     28 O          21.5339   71.6701   -1.5046 O.3     1  UNL1       -0.2858
     29 C          22.6960   71.5711   -0.6804 C.3     1  UNL1        0.2704
     30 C          22.2940   71.0735    0.7089 C.3     1  UNL1        0.1967
     31 C          21.2826   72.0512    1.3153 C.3     1  UNL1        0.1715
     32 C          21.8804   73.4621    1.2754 C.3     1  UNL1        0.1694
     33 C          22.3123   73.7794   -0.1584 C.3     1  UNL1        0.1761
     34 O          21.7031   69.7773    0.6006 O.3     1  UNL1       -0.3775
     35 O          21.0089   71.6812    2.6683 O.3     1  UNL1       -0.3794
     36 O          23.0112   73.5267    2.1455 O.3     1  UNL1       -0.3794
     37 O          23.3131   72.8521   -0.5760 O.3     1  UNL1       -0.3258
     38 H          22.3709   69.1982    0.2087 H       1  UNL1        0.2106
     39 H          20.6472   70.7862    2.6459 H       1  UNL1        0.2105
     40 H          22.6939   73.3149    3.0331 H       1  UNL1        0.2105
     41 C          22.8795   75.1996   -0.2159 C.3     1  UNL1        0.1693
     42 O          21.8704   76.0960   -0.6841 O.3     1  UNL1       -0.3794
     43 H          22.2671   76.9778   -0.7050 H       1  UNL1        0.2105
@<TRIPOS>BOND
     1    15    16   ar
     2    15    20   ar
     3    15     6    1
     4    16    17   ar
     5    16    21    2
     6    17    18   ar
     7    17    23    1
     8    18    19   ar
     9    18    22    2
    10    19    20   ar
    11     6     7    1
    12     6    11    1
    13     7     8    1
    14     7     9    1
    15     8    13    1
    16     9    10    1
    17     9    12    1
    18    10    11    1
    19    10     5    1
    20    12    14    1
    21     5     4    1
    22     4     1    1
    23     1     2    2
    24     1     3    1
    25     1    24    1
    26    24    25    1
    27    25    26    2
    28    25    27    1
    29    25    28    1
    30    28    29    1
    31    29    30    1
    32    29    37    1
    33    30    31    1
    34    30    34    1
    35    31    32    1
    36    31    35    1
    37    32    33    1
    38    32    36    1
    39    33    41    1
    40    33    37    1
    41    41    42    1
    42    34    38    1
    43    35    39    1
    44    36    40    1
    45    42    43    1
@<TRIPOS>MOLECULE
GDU
 43 45 0 0 0
SMALL
GASTEIGER

@<TRIPOS>ATOM
      1 P          18.1571   70.0603   -3.3898 P.3     1  UNL1        0.2189
      2 O          18.5834   69.1712   -2.2864 O.2     1  UNL1       -0.5170
      3 O          16.8738   70.9147   -2.9251 O.3     1  UNL1       -0.4371
      4 O          19.3587   71.0599   -3.7688 O.3     1  UNL1       -0.3112
      5 C          19.5625   71.9092   -2.6384 C.3     1  UNL1        0.1811
      6 C          22.4657   72.3561   -0.5650 C.3     1  UNL1        0.2383
      7 C          22.3376   70.8200   -0.7291 C.3     1  UNL1        0.1895
      8 O          23.6219   70.1939   -0.6879 O.3     1  UNL1       -0.3779
      9 C          21.7066   70.6956   -2.1404 C.3     1  UNL1        0.1713
     10 C          21.0623   72.0728   -2.3850 C.3     1  UNL1        0.1764
     11 O          21.2745   72.8637   -1.2028 O.3     1  UNL1       -0.3308
     12 O          22.7150   70.4272   -3.1166 O.3     1  UNL1       -0.3794
     13 H          23.4726   69.2441   -0.7948 H       1  UNL1        0.2106
     14 H          23.1202   69.5831   -2.8758 H       1  UNL1        0.2105
     15 N          22.4899   72.7255    0.8513 N.ar    1  UNL1       -0.2551
     16 C          21.9885   71.8805    1.7694 C.ar    1  UNL1        0.3323
     17 N          22.0017   72.1944    3.0783 N.ar    1  UNL1       -0.2743
     18 C          22.5114   73.3712    3.4902 C.ar    1  UNL1        0.2626
     19 C          23.0377   74.2736    2.5338 C.ar    1  UNL1        0.0795
     20 C          23.0159   73.9319    1.2279 C.ar    1  UNL1        0.0869
     21 O          21.5258   70.8152    1.4130 O.2     1  UNL1       -0.2464
     22 O          22.5194   73.6582    4.6743 O.2     1  UNL1       -0.2670
     23 H          21.6395   71.5708    3.7276 H       1  UNL1        0.1734
     24 O          17.7712   69.1712   -4.6755 O.3     1  UNL1       -0.2703
     25 P          17.1291   70.1725   -5.7595 P.3     1  UNL1        0.2208
     26 O          16.1834   69.4274   -6.6196 O.2     1  UNL1       -0.5170
     27 O          16.3440   71.3551   -4.9985 O.3     1  UNL1       -0.4371
     28 O          18.2984   70.8038   -6.6674 O.3     1  UNL1       -0.2858
     29 C          17.9390   70.5687   -8.0295 C.3     1  UNL1        0.2704
     30 C          19.1913   70.6344   -8.9051 C.3     1  UNL1        0.1967
     31 C          19.8386   72.0136   -8.7469 C.3     1  UNL1        0.1715
     32 C          18.7829   73.0865   -9.0368 C.3     1  UNL1        0.1694
     33 C          17.5615   72.8358   -8.1490 C.3     1  UNL1        0.1761
     34 O          20.1134   69.6217   -8.4983 O.3     1  UNL1       -0.3775
     35 O          20.9238   72.1432   -9.6677 O.3     1  UNL1       -0.3794
     36 O          18.4015   73.0223  -10.4118 O.3     1  UNL1       -0.3794
     37 O          17.0022   71.5579   -8.4495 O.3     1  UNL1       -0.3258
     38 H          19.6624   68.7735   -8.6076 H       1  UNL1        0.2106
     39 H          21.5551   71.4438   -9.4565 H       1  UNL1        0.2105
     40 H          19.2005   73.1798  -10.9315 H       1  UNL1        0.2105
     41 C          16.5146   73.9221   -8.4061 C.3     1  UNL1        0.1693
     42 O          17.1370   75.0423   -9.0376 O.3     1  UNL1       -0.3794
     43 H          16.4449   75.7021   -9.1825 H       1  UNL1        0.2105
@<TRIPOS>BOND
     1    15    16   ar
     2    15    20   ar
     3    15     6    1
     4    16    17   ar
     5    16    21    2
     6    17    18   ar
     7    17    23    1
     8    18    19   ar
     9    18    22    2
    10    19    20   ar
    11     6     7    1
    12     6    11    1
    13     7     8    1
    14     7     9    1
    15     8    13    1
    16     9    10    1
    17     9    12    1
    18    10    11    1
    19    10     5    1
    20    12    14    1
    21     5     4    1
    22     4     1    1
    23     1     2    2
    24     1     3    1
    25     1    24    1
    26    24    25    1
    27    25    26    2
    28    25    27    1
    29    25    28    1
    30    28    29    1
    31    29    30    1
    32    29    37    1
    33    30    31    1
    34    30    34    1
    35    31    32    1
    36    31    35    1
    37    32    33    1
    38    32    36    1
    39    33    41    1
    40    33    37    1
    41    41    42    1
    42    34    38    1
    43    35    39    1
    44    36    40    1
    45    42    43    1
@<TRIPOS>MOLECULE
GDU
 43 45 0 0 0
SMALL
GASTEIGER

@<TRIPOS>ATOM
      1 P          22.5959   73.7121   -4.2029 P.3     1  UNL1        0.2189
      2 O          23.9102   74.3867   -4.2861 O.2     1  UNL1       -0.5170
      3 O          22.7715   72.1501   -4.5525 O.3     1  UNL1       -0.4371
      4 O          22.0065   73.8659   -2.7144 O.3     1  UNL1       -0.3112
      5 C          23.0856   74.2996   -1.8849 C.3     1  UNL1        0.1811
      6 C          22.3042   72.8080    1.2919 C.3     1  UNL1        0.2383
      7 C          21.5208   71.9575    0.2595 C.3     1  UNL1        0.1895
      8 O          21.3916   70.6056    0.7055 O.3     1  UNL1       -0.3779
      9 C          22.4338   72.0425   -0.9912 C.3     1  UNL1        0.1713
     10 C          23.2891   73.2993   -0.7455 C.3     1  UNL1        0.1764
     11 O          22.8554   73.8793    0.4970 O.3     1  UNL1       -0.3308
     12 O          23.2581   70.8793   -1.0880 O.3     1  UNL1       -0.3794
     13 H          20.8970   70.1325    0.0219 H       1  UNL1        0.2106
     14 H          22.6642   70.1221   -1.1809 H       1  UNL1        0.2105
     15 N          21.4034   73.3373    2.3172 N.ar    1  UNL1       -0.2551
     16 C          21.3612   72.7592    3.5306 C.ar    1  UNL1        0.3323
     17 N          20.5444   73.2284    4.4921 N.ar    1  UNL1       -0.2743
     18 C          19.7446   74.2846    4.2492 C.ar    1  UNL1        0.2626
     19 C          19.7743   74.9001    2.9738 C.ar    1  UNL1        0.0795
     20 C          20.6059   74.4120    2.0290 C.ar    1  UNL1        0.0869
     21 O          22.0771   71.8059    3.7647 O.2     1  UNL1       -0.2464
     22 O          19.0015   74.7072    5.1173 O.2     1  UNL1       -0.2670
     23 H          20.5300   72.8016    5.3635 H       1  UNL1        0.1734
     24 O          21.5806   74.3853   -5.2558 O.3     1  UNL1       -0.2703
     25 P          21.3515   73.3133   -6.4340 P.3     1  UNL1        0.2208
     26 O          20.6664   73.9682   -7.5701 O.2     1  UNL1       -0.5170
     27 O          22.7755   72.7420   -6.9238 O.3     1  UNL1       -0.4371
     28 O          20.4468   72.0994   -5.8881 O.3     1  UNL1       -0.2858
     29 C          19.2312   72.6726   -5.4047 C.3     1  UNL1        0.2704
     30 C          18.8041   71.9551   -4.1233 C.3     1  UNL1        0.1967
     31 C          18.6170   70.4650   -4.4250 C.3     1  UNL1        0.1715
     32 C          17.6503   70.3217   -5.6059 C.3     1  UNL1        0.1694
     33 C          18.1664   71.1623   -6.7764 C.3     1  UNL1        0.1761
     34 O          19.8118   72.1197   -3.1240 O.3     1  UNL1       -0.3775
     35 O          18.0772   69.8068   -3.2769 O.3     1  UNL1       -0.3794
     36 O          16.3530   70.7775   -5.2195 O.3     1  UNL1       -0.3794
     37 O          18.2164   72.5368   -6.3968 O.3     1  UNL1       -0.3258
     38 H          19.9009   73.0704   -2.9715 H       1  UNL1        0.2106
     39 H          18.7102   69.9326   -2.5588 H       1  UNL1        0.2105
     40 H          16.0715   70.2252   -4.4785 H       1  UNL1        0.2105
     41 C          17.2262   70.9991   -7.9728 C.3     1  UNL1        0.1693
     42 O          17.9275   70.3689   -9.0462 O.3     1  UNL1       -0.3794
     43 H          17.3012   70.2842   -9.7782 H       1  UNL1        0.2105
@<TRIPOS>BOND
     1    15    16   ar
     2    15    20   ar
     3    15     6    1
     4    16    17   ar
     5    16    21    2
     6    17    18   ar
     7    17    23    1
     8    18    19   ar
     9    18    22    2
    10    19    20   ar
    11     6     7    1
    12     6    11    1
    13     7     8    1
    14     7     9    1
    15     8    13    1
    16     9    10    1
    17     9    12    1
    18    10    11    1
    19    10     5    1
    20    12    14    1
    21     5     4    1
    22     4     1    1
    23     1     2    2
    24     1     3    1
    25     1    24    1
    26    24    25    1
    27    25    26    2
    28    25    27    1
    29    25    28    1
    30    28    29    1
    31    29    30    1
    32    29    37    1
    33    30    31    1
    34    30    34    1
    35    31    32    1
    36    31    35    1
    37    32    33    1
    38    32    36    1
    39    33    41    1
    40    33    37    1
    41    41    42    1
    42    34    38    1
    43    35    39    1
    44    36    40    1
    45    42    43    1
@<TRIPOS>MOLECULE
GDU
 43 45 0 0 0
SMALL
GASTEIGER

@<TRIPOS>ATOM
      1 P          22.7555   75.6843   -4.3378 P.3     1  UNL1        0.2189
      2 O          23.2707   77.0714   -4.3446 O.2     1  UNL1       -0.5170
      3 O          23.9500   74.6666   -4.6990 O.3     1  UNL1       -0.4371
      4 O          22.1750   75.3342   -2.8792 O.3     1  UNL1       -0.3112
      5 C          20.8426   74.8551   -3.0683 C.3     1  UNL1        0.1811
      6 C          19.6951   71.4693   -2.6849 C.3     1  UNL1        0.2383
      7 C          21.1469   71.3309   -3.2102 C.3     1  UNL1        0.1895
      8 O          21.7566   70.1365   -2.7154 O.3     1  UNL1       -0.3779
      9 C          21.8298   72.5888   -2.6130 C.3     1  UNL1        0.1713
     10 C          20.6586   73.5409   -2.3073 C.3     1  UNL1        0.1764
     11 O          19.4509   72.8909   -2.7399 O.3     1  UNL1       -0.3308
     12 O          22.5360   72.2535   -1.4169 O.3     1  UNL1       -0.3794
     13 H          22.6532   70.1104   -3.0776 H       1  UNL1        0.2106
     14 H          23.2157   71.6117   -1.6635 H       1  UNL1        0.2105
     15 N          18.7597   70.7514   -3.5524 N.ar    1  UNL1       -0.2551
     16 C          18.5466   69.4376   -3.3605 C.ar    1  UNL1        0.3323
     17 N          17.6891   68.7548   -4.1418 N.ar    1  UNL1       -0.2743
     18 C          17.0347   69.3786   -5.1402 C.ar    1  UNL1        0.2626
     19 C          17.2537   70.7610   -5.3578 C.ar    1  UNL1        0.0795
     20 C          18.1158   71.4226   -4.5568 C.ar    1  UNL1        0.0869
     21 O          19.1292   68.8614   -2.4635 O.2     1  UNL1       -0.2464
     22 O          16.2620   68.7604   -5.8510 O.2     1  UNL1       -0.2670
     23 H          17.5441   67.8079   -3.9863 H       1  UNL1        0.1734
     24 O          21.5827   75.5430   -5.4317 O.3     1  UNL1       -0.2703
     25 P          22.1266   74.5472   -6.5730 P.3     1  UNL1        0.2208
     26 O          23.2866   75.1638   -7.2535 O.2     1  UNL1       -0.5170
     27 O          22.5776   73.1552   -5.8999 O.3     1  UNL1       -0.4371
     28 O          20.9592   74.2697   -7.6455 O.3     1  UNL1       -0.2858
     29 C          20.1598   73.2077   -7.1233 C.3     1  UNL1        0.2704
     30 C          19.9434   72.1521   -8.2087 C.3     1  UNL1        0.1967
     31 C          19.2551   72.8065   -9.4105 C.3     1  UNL1        0.1715
     32 C          17.9840   73.5112   -8.9234 C.3     1  UNL1        0.1694
     33 C          18.3497   74.4660   -7.7842 C.3     1  UNL1        0.1761
     34 O          21.2043   71.6145   -8.6117 O.3     1  UNL1       -0.3775
     35 O          18.9137   71.8057  -10.3720 O.3     1  UNL1       -0.3794
     36 O          17.0477   72.5389   -8.4565 O.3     1  UNL1       -0.3794
     37 O          18.9028   73.7273   -6.6959 O.3     1  UNL1       -0.3258
     38 H          21.6039   71.2202   -7.8244 H       1  UNL1        0.2106
     39 H          19.7389   71.3823  -10.6403 H       1  UNL1        0.2105
     40 H          16.8516   71.9581   -9.2031 H       1  UNL1        0.2105
     41 C          17.0924   75.2004   -7.3132 C.3     1  UNL1        0.1693
     42 O          17.3568   76.6029   -7.2495 O.3     1  UNL1       -0.3794
     43 H          16.5414   77.0282   -6.9502 H       1  UNL1        0.2105
@<TRIPOS>BOND
     1    15    16   ar
     2    15    20   ar
     3    15     6    1
     4    16    17   ar
     5    16    21    2
     6    17    18   ar
     7    17    23    1
     8    18    19   ar
     9    18    22    2
    10    19    20   ar
    11     6     7    1
    12     6    11    1
    13     7     8    1
    14     7     9    1
    15     8    13    1
    16     9    10    1
    17     9    12    1
    18    10    11    1
    19    10     5    1
    20    12    14    1
    21     5     4    1
    22     4     1    1
    23     1     2    2
    24     1     3    1
    25     1    24    1
    26    24    25    1
    27    25    26    2
    28    25    27    1
    29    25    28    1
    30    28    29    1
    31    29    30    1
    32    29    37    1
    33    30    31    1
    34    30    34    1
    35    31    32    1
    36    31    35    1
    37    32    33    1
    38    32    36    1
    39    33    41    1
    40    33    37    1
    41    41    42    1
    42    34    38    1
    43    35    39    1
    44    36    40    1
    45    42    43    1
@<TRIPOS>MOLECULE
GDU
 43 45 0 0 0
SMALL
GASTEIGER

@<TRIPOS>ATOM
      1 P          22.1211   70.4348    0.0196 P.3     1  UNL1        0.2189
      2 O          23.0331   71.4906   -0.4735 O.2     1  UNL1       -0.5170
      3 O          22.9458   69.0675    0.2277 O.3     1  UNL1       -0.4371
      4 O          21.4780   70.8922    1.4211 O.3     1  UNL1       -0.3112
      5 C          21.9925   72.1936    1.7073 C.3     1  UNL1        0.1811
      6 C          20.5995   74.3707    4.2067 C.3     1  UNL1        0.2383
      7 C          21.1967   75.3293    3.1449 C.3     1  UNL1        0.1895
      8 O          20.4527   76.5483    3.0825 O.3     1  UNL1       -0.3779
      9 C          21.0288   74.5114    1.8379 C.3     1  UNL1        0.1713
     10 C          20.8890   73.0563    2.3224 C.3     1  UNL1        0.1764
     11 O          21.0171   73.0651    3.7548 O.3     1  UNL1       -0.3308
     12 O          19.8557   74.9268    1.1357 O.3     1  UNL1       -0.3794
     13 H          20.8738   77.0977    2.4067 H       1  UNL1        0.2106
     14 H          19.9788   75.8592    0.9117 H       1  UNL1        0.2105
     15 N          21.1503   74.6583    5.5322 N.ar    1  UNL1       -0.2551
     16 C          20.4375   74.3537    6.6310 C.ar    1  UNL1        0.3323
     17 N          20.9225   74.6044    7.8614 N.ar    1  UNL1       -0.2743
     18 C          22.1324   75.1769    8.0117 C.ar    1  UNL1        0.2626
     19 C          22.8920   75.5085    6.8631 C.ar    1  UNL1        0.0795
     20 C          22.3837   75.2423    5.6411 C.ar    1  UNL1        0.0869
     21 O          19.3447   73.8365    6.5112 O.2     1  UNL1       -0.2464
     22 O          22.5701   75.4086    9.1249 O.2     1  UNL1       -0.2670
     23 H          20.3962   74.3741    8.6435 H       1  UNL1        0.1734
     24 O          20.9485   70.1940   -1.0572 O.3     1  UNL1       -0.2703
     25 P          21.4085   70.9196   -2.4181 P.3     1  UNL1        0.2208
     26 O          21.5894   72.3667   -2.1684 O.2     1  UNL1       -0.5170
     27 O          22.8006   70.2842   -2.9207 O.3     1  UNL1       -0.4371
     28 O          20.2832   70.7056   -3.5485 O.3     1  UNL1       -0.2858
     29 C          19.0659   71.2423   -3.0290 C.3     1  UNL1        0.2704
     30 C          17.9675   70.1807   -3.1066 C.3     1  UNL1        0.1967
     31 C          17.7902   69.7525   -4.5666 C.3     1  UNL1        0.1715
     32 C          17.5493   71.0038   -5.4185 C.3     1  UNL1        0.1694
     33 C          18.6814   72.0028   -5.1668 C.3     1  UNL1        0.1761
     34 O          18.3381   69.0498   -2.3162 O.3     1  UNL1       -0.3775
     35 O          16.6702   68.8714   -4.6759 O.3     1  UNL1       -0.3794
     36 O          16.2981   71.5921   -5.0604 O.3     1  UNL1       -0.3794
     37 O          18.6887   72.3858   -3.7924 O.3     1  UNL1       -0.3258
     38 H          18.4457   69.3667   -1.4090 H       1  UNL1        0.2106
     39 H          16.8597   68.1074   -4.1168 H       1  UNL1        0.2105
     40 H          15.6177   70.9274   -5.2295 H       1  UNL1        0.2105
     41 C          18.4688   73.2423   -6.0388 C.3     1  UNL1        0.1693
     42 O          17.8010   72.8666   -7.2446 O.3     1  UNL1       -0.3794
     43 H          17.6858   73.6741   -7.7641 H       1  UNL1        0.2105
@<TRIPOS>BOND
     1    15    16   ar
     2    15    20   ar
     3    15     6    1
     4    16    17   ar
     5    16    21    2
     6    17    18   ar
     7    17    23    1
     8    18    19   ar
     9    18    22    2
    10    19    20   ar
    11     6     7    1
    12     6    11    1
    13     7     8    1
    14     7     9    1
    15     8    13    1
    16     9    10    1
    17     9    12    1
    18    10    11    1
    19    10     5    1
    20    12    14    1
    21     5     4    1
    22     4     1    1
    23     1     2    2
    24     1     3    1
    25     1    24    1
    26    24    25    1
    27    25    26    2
    28    25    27    1
    29    25    28    1
    30    28    29    1
    31    29    30    1
    32    29    37    1
    33    30    31    1
    34    30    34    1
    35    31    32    1
    36    31    35    1
    37    32    33    1
    38    32    36    1
    39    33    41    1
    40    33    37    1
    41    41    42    1
    42    34    38    1
    43    35    39    1
    44    36    40    1
    45    42    43    1
@<TRIPOS>MOLECULE
GDU
 43 45 0 0 0
SMALL
GASTEIGER

@<TRIPOS>ATOM
      1 P          20.0299   71.4176   -4.3712 P.3     1  UNL1        0.2189
      2 O          19.4048   72.2418   -3.3132 O.2     1  UNL1       -0.5170
      3 O          20.7572   70.1465   -3.7017 O.3     1  UNL1       -0.4371
      4 O          18.8984   70.9103   -5.3956 O.3     1  UNL1       -0.3112
      5 C          19.4677   70.9715   -6.7043 C.3     1  UNL1        0.1811
      6 C          16.9968   72.9638   -8.3933 C.3     1  UNL1        0.2383
      7 C          18.2734   73.1097   -9.2605 C.3     1  UNL1        0.1895
      8 O          17.9362   73.2988  -10.6366 O.3     1  UNL1       -0.3779
      9 C          18.9708   71.7413   -9.0449 C.3     1  UNL1        0.1713
     10 C          18.3614   71.2134   -7.7328 C.3     1  UNL1        0.1764
     11 O          17.4526   72.2160   -7.2459 O.3     1  UNL1       -0.3308
     12 O          18.6822   70.8571  -10.1297 O.3     1  UNL1       -0.3794
     13 H          18.7705   73.3825  -11.1192 H       1  UNL1        0.2106
     14 H          19.0361   71.2698  -10.9291 H       1  UNL1        0.2105
     15 N          16.4941   74.2771   -7.9866 N.ar    1  UNL1       -0.2551
     16 C          15.2338   74.6326   -8.2924 C.ar    1  UNL1        0.3323
     17 N          14.7459   75.8328   -7.9270 N.ar    1  UNL1       -0.2743
     18 C          15.5204   76.7054   -7.2541 C.ar    1  UNL1        0.2626
     19 C          16.8519   76.3467   -6.9302 C.ar    1  UNL1        0.0795
     20 C          17.3145   75.1351   -7.3049 C.ar    1  UNL1        0.0869
     21 O          14.5231   73.8558   -8.8986 O.2     1  UNL1       -0.2464
     22 O          15.0813   77.7939   -6.9271 O.2     1  UNL1       -0.2670
     23 H          13.8326   76.0711   -8.1523 H       1  UNL1        0.1734
     24 O          21.1178   72.2999   -5.1651 O.3     1  UNL1       -0.2703
     25 P          22.0703   72.9741   -4.0569 P.3     1  UNL1        0.2208
     26 O          23.4429   72.4394   -4.1953 O.2     1  UNL1       -0.5170
     27 O          22.0930   74.5706   -4.2687 O.3     1  UNL1       -0.4371
     28 O          21.5076   72.6370   -2.5873 O.3     1  UNL1       -0.2858
     29 C          22.6268   72.6549   -1.7003 C.3     1  UNL1        0.2704
     30 C          22.7690   71.2863   -1.0323 C.3     1  UNL1        0.1967
     31 C          21.4794   70.9674   -0.2696 C.3     1  UNL1        0.1715
     32 C          21.1730   72.1292    0.6823 C.3     1  UNL1        0.1694
     33 C          21.1499   73.4345   -0.1168 C.3     1  UNL1        0.1761
     34 O          22.9964   70.2885   -2.0292 O.3     1  UNL1       -0.3775
     35 O          21.6500   69.7622    0.4793 O.3     1  UNL1       -0.3794
     36 O          22.1814   72.1988    1.6914 O.3     1  UNL1       -0.3794
     37 O          22.4288   73.6595   -0.7082 O.3     1  UNL1       -0.3258
     38 H          23.8119   70.5329   -2.4876 H       1  UNL1        0.2106
     39 H          21.8521   69.0640   -0.1563 H       1  UNL1        0.2105
     40 H          22.1634   71.3562    2.1636 H       1  UNL1        0.2105
     41 C          20.8108   74.5972    0.8187 C.3     1  UNL1        0.1693
     42 O          19.5017   75.0835    0.5176 O.3     1  UNL1       -0.3794
     43 H          19.3268   75.8129    1.1281 H       1  UNL1        0.2105
@<TRIPOS>BOND
     1    15    16   ar
     2    15    20   ar
     3    15     6    1
     4    16    17   ar
     5    16    21    2
     6    17    18   ar
     7    17    23    1
     8    18    19   ar
     9    18    22    2
    10    19    20   ar
    11     6     7    1
    12     6    11    1
    13     7     8    1
    14     7     9    1
    15     8    13    1
    16     9    10    1
    17     9    12    1
    18    10    11    1
    19    10     5    1
    20    12    14    1
    21     5     4    1
    22     4     1    1
    23     1     2    2
    24     1     3    1
    25     1    24    1
    26    24    25    1
    27    25    26    2
    28    25    27    1
    29    25    28    1
    30    28    29    1
    31    29    30    1
    32    29    37    1
    33    30    31    1
    34    30    34    1
    35    31    32    1
    36    31    35    1
    37    32    33    1
    38    32    36    1
    39    33    41    1
    40    33    37    1
    41    41    42    1
    42    34    38    1
    43    35    39    1
    44    36    40    1
    45    42    43    1
@<TRIPOS>MOLECULE
GDU
 43 45 0 0 0
SMALL
GASTEIGER

@<TRIPOS>ATOM
      1 P          22.7237   73.6086   -4.6399 P.3     1  UNL1        0.2189
      2 O          23.1739   74.5951   -5.6467 O.2     1  UNL1       -0.5170
      3 O          23.9788   72.7219   -4.1589 O.3     1  UNL1       -0.4371
      4 O          22.0957   74.3798   -3.3759 O.3     1  UNL1       -0.3112
      5 C          21.2498   73.4474   -2.7008 C.3     1  UNL1        0.1811
      6 C          22.2033   72.0646    0.4782 C.3     1  UNL1        0.2383
      7 C          21.1933   71.0427   -0.1034 C.3     1  UNL1        0.1895
      8 O          21.4944   69.7182    0.3419 O.3     1  UNL1       -0.3779
      9 C          21.4333   71.1811   -1.6294 C.3     1  UNL1        0.1713
     10 C          22.0939   72.5640   -1.7804 C.3     1  UNL1        0.1764
     11 O          22.1660   73.1523   -0.4701 O.3     1  UNL1       -0.3308
     12 O          22.3058   70.1491   -2.0935 O.3     1  UNL1       -0.3794
     13 H          20.8323   69.1339   -0.0533 H       1  UNL1        0.2106
     14 H          21.8628   69.3078   -1.9181 H       1  UNL1        0.2105
     15 N          21.7755   72.5197    1.8021 N.ar    1  UNL1       -0.2551
     16 C          22.2343   71.8965    2.9019 C.ar    1  UNL1        0.3323
     17 N          21.8593   72.2973    4.1309 N.ar    1  UNL1       -0.2743
     18 C          21.0058   73.3287    4.2789 C.ar    1  UNL1        0.2626
     19 C          20.5098   73.9909    3.1292 C.ar    1  UNL1        0.0795
     20 C          20.9055   73.5713    1.9086 C.ar    1  UNL1        0.0869
     21 O          23.0052   70.9649    2.7843 O.2     1  UNL1       -0.2464
     22 O          20.6620   73.6892    5.3908 O.2     1  UNL1       -0.2670
     23 H          22.2036   71.8388    4.9138 H       1  UNL1        0.1734
     24 O          21.6084   72.6480   -5.2925 O.3     1  UNL1       -0.2703
     25 P          21.0126   73.4252   -6.5696 P.3     1  UNL1        0.2208
     26 O          21.1690   74.8837   -6.3763 O.2     1  UNL1       -0.5170
     27 O          21.8096   72.9713   -7.8935 O.3     1  UNL1       -0.4371
     28 O          19.4519   73.0692   -6.7357 O.3     1  UNL1       -0.2858
     29 C          19.3825   71.7436   -7.2628 C.3     1  UNL1        0.2704
     30 C          18.2287   71.6531   -8.2627 C.3     1  UNL1        0.1967
     31 C          16.9228   72.0216   -7.5520 C.3     1  UNL1        0.1715
     32 C          16.7771   71.1401   -6.3064 C.3     1  UNL1        0.1694
     33 C          18.0412   71.2713   -5.4532 C.3     1  UNL1        0.1761
     34 O          18.4595   72.5590   -9.3431 O.3     1  UNL1       -0.3775
     35 O          15.8184   71.8003   -8.4316 O.3     1  UNL1       -0.3794
     36 O          16.6011   69.7791   -6.7022 O.3     1  UNL1       -0.3794
     37 O          19.1726   70.8206   -6.1967 O.3     1  UNL1       -0.3258
     38 H          19.2929   72.2944   -9.7559 H       1  UNL1        0.2106
     39 H          15.9578   72.3639   -9.2031 H       1  UNL1        0.2105
     40 H          15.7994   69.7456   -7.2403 H       1  UNL1        0.2105
     41 C          17.8919   70.4213   -4.1894 C.3     1  UNL1        0.1693
     42 O          16.5049   70.2115   -3.9186 O.3     1  UNL1       -0.3794
     43 H          16.4547   69.6725   -3.1173 H       1  UNL1        0.2105
@<TRIPOS>BOND
     1    15    16   ar
     2    15    20   ar
     3    15     6    1
     4    16    17   ar
     5    16    21    2
     6    17    18   ar
     7    17    23    1
     8    18    19   ar
     9    18    22    2
    10    19    20   ar
    11     6     7    1
    12     6    11    1
    13     7     8    1
    14     7     9    1
    15     8    13    1
    16     9    10    1
    17     9    12    1
    18    10    11    1
    19    10     5    1
    20    12    14    1
    21     5     4    1
    22     4     1    1
    23     1     2    2
    24     1     3    1
    25     1    24    1
    26    24    25    1
    27    25    26    2
    28    25    27    1
    29    25    28    1
    30    28    29    1
    31    29    30    1
    32    29    37    1
    33    30    31    1
    34    30    34    1
    35    31    32    1
    36    31    35    1
    37    32    33    1
    38    32    36    1
    39    33    41    1
    40    33    37    1
    41    41    42    1
    42    34    38    1
    43    35    39    1
    44    36    40    1
    45    42    43    1
@<TRIPOS>MOLECULE
GDU
 43 45 0 0 0
SMALL
GASTEIGER

@<TRIPOS>ATOM
      1 P          22.8300   73.6376   -3.5211 P.3     1  UNL1        0.2189
      2 O          22.5408   75.0094   -3.9944 O.2     1  UNL1       -0.5170
      3 O          24.2260   73.1368   -4.1483 O.3     1  UNL1       -0.4371
      4 O          22.9307   73.6333   -1.9159 O.3     1  UNL1       -0.3112
      5 C          22.3055   72.4306   -1.4653 C.3     1  UNL1        0.1811
      6 C          22.6400   73.2550    2.0184 C.3     1  UNL1        0.2383
      7 C          21.2833   72.5112    1.9231 C.3     1  UNL1        0.1895
      8 O          21.0047   71.8016    3.1322 O.3     1  UNL1       -0.3779
      9 C          21.5335   71.5281    0.7499 C.3     1  UNL1        0.1713
     10 C          22.7134   72.1534   -0.0172 C.3     1  UNL1        0.1764
     11 O          23.0491   73.3874    0.6405 O.3     1  UNL1       -0.3308
     12 O          21.8809   70.2345    1.2476 O.3     1  UNL1       -0.3794
     13 H          20.1513   71.3633    3.0080 H       1  UNL1        0.2106
     14 H          21.1272   69.9224    1.7666 H       1  UNL1        0.2105
     15 N          22.4667   74.5718    2.6338 N.ar    1  UNL1       -0.2551
     16 C          22.6672   74.7220    3.9550 C.ar    1  UNL1        0.3323
     17 N          22.5179   75.9226    4.5450 N.ar    1  UNL1       -0.2743
     18 C          22.1536   76.9967    3.8184 C.ar    1  UNL1        0.2626
     19 C          21.9334   76.8522    2.4267 C.ar    1  UNL1        0.0795
     20 C          22.0942   75.6377    1.8597 C.ar    1  UNL1        0.0869
     21 O          22.9966   73.7624    4.6233 O.2     1  UNL1       -0.2464
     22 O          22.0136   78.0829    4.3524 O.2     1  UNL1       -0.2670
     23 H          22.6709   76.0137    5.4990 H       1  UNL1        0.1734
     24 O          21.6480   72.6493   -3.9886 O.3     1  UNL1       -0.2703
     25 P          21.3466   72.9808   -5.5343 P.3     1  UNL1        0.2208
     26 O          20.8046   74.3528   -5.6478 O.2     1  UNL1       -0.5170
     27 O          22.7115   72.8717   -6.3823 O.3     1  UNL1       -0.4371
     28 O          20.2729   71.9293   -6.1103 O.3     1  UNL1       -0.2858
     29 C          19.1243   72.6819   -6.5028 C.3     1  UNL1        0.2704
     30 C          17.8672   72.0324   -5.9222 C.3     1  UNL1        0.1967
     31 C          17.7697   70.5913   -6.4322 C.3     1  UNL1        0.1715
     32 C          17.8483   70.6068   -7.9630 C.3     1  UNL1        0.1694
     33 C          19.1090   71.3634   -8.3889 C.3     1  UNL1        0.1761
     34 O          17.9436   72.0327   -4.4956 O.3     1  UNL1       -0.3775
     35 O          16.5273   70.0187   -6.0187 O.3     1  UNL1       -0.3794
     36 O          16.6928   71.2568   -8.4942 O.3     1  UNL1       -0.3794
     37 O          19.0410   72.7112   -7.9257 O.3     1  UNL1       -0.3258
     38 H          18.0108   72.9570   -4.2199 H       1  UNL1        0.2106
     39 H          16.5166   70.0405   -5.0535 H       1  UNL1        0.2105
     40 H          15.9255   70.7508   -8.1966 H       1  UNL1        0.2105
     41 C          19.2152   71.3552   -9.9156 C.3     1  UNL1        0.1693
     42 O          18.4422   72.4303  -10.4518 O.3     1  UNL1       -0.3794
     43 H          18.5363   72.3903  -11.4134 H       1  UNL1        0.2105
@<TRIPOS>BOND
     1    15    16   ar
     2    15    20   ar
     3    15     6    1
     4    16    17   ar
     5    16    21    2
     6    17    18   ar
     7    17    23    1
     8    18    19   ar
     9    18    22    2
    10    19    20   ar
    11     6     7    1
    12     6    11    1
    13     7     8    1
    14     7     9    1
    15     8    13    1
    16     9    10    1
    17     9    12    1
    18    10    11    1
    19    10     5    1
    20    12    14    1
    21     5     4    1
    22     4     1    1
    23     1     2    2
    24     1     3    1
    25     1    24    1
    26    24    25    1
    27    25    26    2
    28    25    27    1
    29    25    28    1
    30    28    29    1
    31    29    30    1
    32    29    37    1
    33    30    31    1
    34    30    34    1
    35    31    32    1
    36    31    35    1
    37    32    33    1
    38    32    36    1
    39    33    41    1
    40    33    37    1
    41    41    42    1
    42    34    38    1
    43    35    39    1
    44    36    40    1
    45    42    43    1
@<TRIPOS>MOLECULE
GDU
 43 45 0 0 0
SMALL
GASTEIGER

@<TRIPOS>ATOM
      1 P          19.2972   69.4099   -3.2169 P.3     1  UNL1        0.2189
      2 O          19.1392   68.0991   -3.8850 O.2     1  UNL1       -0.5170
      3 O          18.2016   69.5503   -2.0451 O.3     1  UNL1       -0.4371
      4 O          20.7733   69.5172   -2.5871 O.3     1  UNL1       -0.3112
      5 C          20.6230   70.0446   -1.2681 C.3     1  UNL1        0.1811
      6 C          21.8500   73.1721    0.0128 C.3     1  UNL1        0.2383
      7 C          22.9596   72.6855   -0.9541 C.3     1  UNL1        0.1895
      8 O          23.6385   73.7933   -1.5500 O.3     1  UNL1       -0.3779
      9 C          22.1449   71.9005   -2.0148 C.3     1  UNL1        0.1713
     10 C          20.8254   71.5607   -1.2971 C.3     1  UNL1        0.1764
     11 O          20.9230   72.0662    0.0457 O.3     1  UNL1       -0.3308
     12 O          21.9021   72.7163   -3.1626 O.3     1  UNL1       -0.3794
     13 H          24.3129   73.4240   -2.1370 H       1  UNL1        0.2106
     14 H          22.7660   72.9440   -3.5322 H       1  UNL1        0.2105
     15 N          22.3989   73.4248    1.3461 N.ar    1  UNL1       -0.2551
     16 C          22.2691   72.4941    2.3080 C.ar    1  UNL1        0.3323
     17 N          22.7679   72.7001    3.5412 N.ar    1  UNL1       -0.2743
     18 C          23.3999   73.8525    3.8354 C.ar    1  UNL1        0.2626
     19 C          23.5390   74.8442    2.8337 C.ar    1  UNL1        0.0795
     20 C          23.0332   74.6102    1.6041 C.ar    1  UNL1        0.0869
     21 O          21.7019   71.4494    2.0575 O.2     1  UNL1       -0.2464
     22 O          23.8475   74.0418    4.9527 O.2     1  UNL1       -0.2670
     23 H          22.6689   72.0157    4.2221 H       1  UNL1        0.1734
     24 O          19.0844   70.5887   -4.2928 O.3     1  UNL1       -0.2703
     25 P          17.5016   70.6914   -4.5654 P.3     1  UNL1        0.2208
     26 O          16.8857   69.3559   -4.4037 O.2     1  UNL1       -0.5170
     27 O          16.8416   71.7171   -3.5136 O.3     1  UNL1       -0.4371
     28 O          17.2473   71.2229   -6.0631 O.3     1  UNL1       -0.2858
     29 C          17.8784   72.5002   -6.1628 C.3     1  UNL1        0.2704
     30 C          17.0093   73.4329   -7.0078 C.3     1  UNL1        0.1967
     31 C          16.8178   72.8144   -8.3960 C.3     1  UNL1        0.1715
     32 C          18.1966   72.4959   -8.9851 C.3     1  UNL1        0.1694
     33 C          18.9755   71.6319   -7.9901 C.3     1  UNL1        0.1761
     34 O          15.7380   73.6032   -6.3786 O.3     1  UNL1       -0.3775
     35 O          16.1330   73.7393   -9.2435 O.3     1  UNL1       -0.3794
     36 O          18.9056   73.7121   -9.2264 O.3     1  UNL1       -0.3794
     37 O          19.1593   72.3494   -6.7705 O.3     1  UNL1       -0.3258
     38 H          15.9071   73.9873   -5.5075 H       1  UNL1        0.2106
     39 H          15.2795   73.9191   -8.8294 H       1  UNL1        0.2105
     40 H          18.3770   74.2248   -9.8517 H       1  UNL1        0.2105
     41 C          20.3414   71.2795   -8.5834 C.3     1  UNL1        0.1693
     42 O          20.4033   69.8742   -8.8327 O.3     1  UNL1       -0.3794
     43 H          21.2772   69.6943   -9.2058 H       1  UNL1        0.2105
@<TRIPOS>BOND
     1    15    16   ar
     2    15    20   ar
     3    15     6    1
     4    16    17   ar
     5    16    21    2
     6    17    18   ar
     7    17    23    1
     8    18    19   ar
     9    18    22    2
    10    19    20   ar
    11     6     7    1
    12     6    11    1
    13     7     8    1
    14     7     9    1
    15     8    13    1
    16     9    10    1
    17     9    12    1
    18    10    11    1
    19    10     5    1
    20    12    14    1
    21     5     4    1
    22     4     1    1
    23     1     2    2
    24     1     3    1
    25     1    24    1
    26    24    25    1
    27    25    26    2
    28    25    27    1
    29    25    28    1
    30    28    29    1
    31    29    30    1
    32    29    37    1
    33    30    31    1
    34    30    34    1
    35    31    32    1
    36    31    35    1
    37    32    33    1
    38    32    36    1
    39    33    41    1
    40    33    37    1
    41    41    42    1
    42    34    38    1
    43    35    39    1
    44    36    40    1
    45    42    43    1
