@<TRIPOS>MOLECULE
*****
 43 45 0 0 0
SMALL
GASTEIGER

@<TRIPOS>ATOM
      1 P          22.9889   71.5932   -2.9031 P.3     1  UNL1        0.2189
      2 O          23.7561   72.9544   -3.3244 O.co2   1  UNL1       -0.4371
      3 O          23.7586   70.3292   -3.1513 O.2     1  UNL1       -0.5170
      4 O          21.5598   71.7045   -3.6536 O.3     1  UNL1       -0.3112
      5 C          20.6560   70.6195   -3.5513 C.3     1  UNL1        0.1811
      6 O          18.8634   71.8070   -4.6254 O.3     1  UNL1       -0.3308
      7 O          17.0853   70.6787   -2.4907 O.3     1  UNL1       -0.3794
      8 O          16.5615   69.0583   -4.6205 O.3     1  UNL1       -0.3779
      9 C          18.2033   70.0790   -3.1458 C.3     1  UNL1        0.1713
     10 C          17.8298   69.6761   -4.5566 C.3     1  UNL1        0.1895
     11 C          19.2429   71.1645   -3.3891 C.3     1  UNL1        0.1764
     12 C          17.8687   71.0083   -5.2858 C.3     1  UNL1        0.2383
     13 H          16.4076   70.0043   -2.3247 H       1  UNL1        0.2105
     14 H          16.5886   68.2142   -4.1421 H       1  UNL1        0.2106
     15 O          16.0281   70.4945   -7.3654 O.2     1  UNL1       -0.2464
     16 O          19.3559   70.4807  -10.5544 O.2     1  UNL1       -0.2670
     17 N          18.2270   70.8658   -6.6687 N.ar    1  UNL1       -0.2551
     18 N          17.6874   70.4871   -8.9516 N.ar    1  UNL1       -0.2743
     19 C          17.2254   70.6085   -7.6344 C.ar    1  UNL1        0.3323
     20 C          19.5563   70.9824   -7.0563 C.ar    1  UNL1        0.0869
     21 C          19.9814   70.8643   -8.3157 C.ar    1  UNL1        0.0795
     22 C          18.9987   70.5944   -9.3857 C.ar    1  UNL1        0.2626
     23 H          17.0087   70.3058   -9.6414 H       1  UNL1        0.1734
     24 O          22.6074   71.8562   -1.3544 O.3     1  UNL1       -0.2703
     25 P          22.3957   70.8288   -0.1243 P.3     1  UNL1        0.2208
     26 O          23.7030   69.8779   -0.2074 O.co2   1  UNL1       -0.4371
     27 O          21.0897   70.0891   -0.1576 O.2     1  UNL1       -0.5170
     28 O          22.6255   71.7222    1.1992 O.3     1  UNL1       -0.2858
     29 O          21.8642   72.4054    3.3353 O.3     1  UNL1       -0.3226
     30 O          21.0600   75.7497    1.0470 O.3     1  UNL1       -0.3794
     31 O          20.5087   73.0761    0.0067 O.3     1  UNL1       -0.3775
     32 O          23.3320   75.7343    2.8604 O.3     1  UNL1       -0.3792
     33 C          21.7748   74.5758    1.4328 C.3     1  UNL1        0.1718
     34 C          20.8461   73.3636    1.3588 C.3     1  UNL1        0.1968
     35 C          22.2754   74.7762    2.8650 C.3     1  UNL1        0.1723
     36 C          21.5045   72.1312    1.9807 C.3     1  UNL1        0.2706
     37 C          22.8015   73.4727    3.4588 C.3     1  UNL1        0.1830
     38 H          20.7322   75.6454    0.1398 H       1  UNL1        0.2105
     39 H          20.0907   73.8538   -0.3942 H       1  UNL1        0.2106
     40 H          23.0103   76.5687    2.4846 H       1  UNL1        0.2106
     41 O          22.0623   72.8385    5.5925 O.co2   1  UNL1       -0.5466
     42 O          23.8254   74.2807    5.4886 O.co2   1  UNL1       -0.5466
     43 C          22.9766   73.5960    4.9375 C.2     1  UNL1        0.0799
@<TRIPOS>UNITY_ATOM_ATTR
2 1
charge -1
26 1
charge -1
41 1
charge -1
@<TRIPOS>BOND
     1     1     4    1
     2     1    24    1
     3     1     2    1
     4     1     3    2
     5    25    28    1
     6    25    24    1
     7    25    26    1
     8    25    27    2
     9     6    11    1
    10     6    12    1
    11    29    36    1
    12    29    37    1
    13     7     9    1
    14     7    13    1
    15     8    10    1
    16     8    14    1
    17     4     5    1
    18    28    36    1
    19    30    33    1
    20    30    38    1
    21    31    34    1
    22    31    39    1
    23    32    35    1
    24    32    40    1
    25    41    43   ar
    26    15    19    2
    27    42    43   ar
    28    16    22    2
    29    17    12    1
    30    17    19   ar
    31    17    20   ar
    32    18    19   ar
    33    18    22   ar
    34    18    23    1
    35     9    10    1
    36     9    11    1
    37    10    12    1
    38    11     5    1
    39    33    34    1
    40    33    35    1
    41    34    36    1
    42    35    37    1
    43    37    43    1
    44    20    21   ar
    45    21    22   ar
@<TRIPOS>MOLECULE
*****
 43 45 0 0 0
SMALL
GASTEIGER

@<TRIPOS>ATOM
      1 P          22.6726   71.0609   -1.8892 P.3     1  UNL1        0.2189
      2 O          23.3807   70.6262   -3.2779 O.co2   1  UNL1       -0.4371
      3 O          23.1902   70.3599   -0.6675 O.2     1  UNL1       -0.5170
      4 O          21.0922   70.8810   -2.1860 O.3     1  UNL1       -0.3112
      5 C          20.6072   71.1931   -3.4790 C.3     1  UNL1        0.1811
      6 O          18.7339   72.1304   -4.6579 O.3     1  UNL1       -0.3308
      7 O          17.0292   71.0162   -2.4569 O.3     1  UNL1       -0.3794
      8 O          16.6828   69.1966   -4.4582 O.3     1  UNL1       -0.3779
      9 C          18.2055   70.4697   -3.0536 C.3     1  UNL1        0.1713
     10 C          17.8908   69.9278   -4.4319 C.3     1  UNL1        0.1895
     11 C          19.1493   71.6213   -3.3720 C.3     1  UNL1        0.1764
     12 C          17.8237   71.1980   -5.2624 C.3     1  UNL1        0.2383
     13 H          16.4108   70.2991   -2.2446 H       1  UNL1        0.2105
     14 H          16.7765   68.3976   -3.9152 H       1  UNL1        0.2106
     15 O          16.0636   70.3834   -7.3155 O.2     1  UNL1       -0.2464
     16 O          19.4329   70.3997  -10.4606 O.2     1  UNL1       -0.2670
     17 N          18.2144   70.9819   -6.6268 N.ar    1  UNL1       -0.2551
     18 N          17.7436   70.3913   -8.8797 N.ar    1  UNL1       -0.2743
     19 C          17.2522   70.5732   -7.5803 C.ar    1  UNL1        0.3323
     20 C          19.5363   71.1761   -7.0088 C.ar    1  UNL1        0.0869
     21 C          19.9897   70.9988   -8.2513 C.ar    1  UNL1        0.0795
     22 C          19.0490   70.5713   -9.3076 C.ar    1  UNL1        0.2626
     23 H          17.0927   70.1048   -9.5606 H       1  UNL1        0.1734
     24 O          22.8589   72.6665   -1.8739 O.3     1  UNL1       -0.2703
     25 P          23.3036   73.6945   -3.0397 P.3     1  UNL1        0.2208
     26 O          21.9001   74.3492   -3.5108 O.co2   1  UNL1       -0.4371
     27 O          24.0946   73.0633   -4.1486 O.2     1  UNL1       -0.5170
     28 O          24.0687   74.8852   -2.2654 O.3     1  UNL1       -0.2858
     29 O          24.8190   75.1018   -0.0295 O.3     1  UNL1       -0.3226
     30 O          23.6396   78.9647   -0.8985 O.3     1  UNL1       -0.3794
     31 O          22.0165   76.6924   -1.7566 O.3     1  UNL1       -0.3775
     32 O          26.4646   78.2829   -0.8263 O.3     1  UNL1       -0.3792
     33 C          24.1626   77.6670   -1.1818 C.3     1  UNL1        0.1718
     34 C          23.1108   76.6079   -0.8510 C.3     1  UNL1        0.1968
     35 C          25.4122   77.4627   -0.3222 C.3     1  UNL1        0.1723
     36 C          23.7087   75.2021   -0.9220 C.3     1  UNL1        0.2706
     37 C          25.8732   76.0083   -0.3461 C.3     1  UNL1        0.1830
     38 H          22.8447   79.1170   -1.4334 H       1  UNL1        0.2105
     39 H          21.6325   77.5819   -1.7170 H       1  UNL1        0.2106
     40 H          26.1840   79.2113   -0.8166 H       1  UNL1        0.2106
     41 O          28.0762   75.4201    0.2037 O.co2   1  UNL1       -0.5466
     42 O          26.6462   75.8277    1.9323 O.co2   1  UNL1       -0.5466
     43 C          26.8727   75.7508    0.7341 C.2     1  UNL1        0.0799
@<TRIPOS>UNITY_ATOM_ATTR
2 1
charge -1
26 1
charge -1
41 1
charge -1
@<TRIPOS>BOND
     1     1     4    1
     2     1    24    1
     3     1     2    1
     4     1     3    2
     5    25    28    1
     6    25    24    1
     7    25    26    1
     8    25    27    2
     9     6    11    1
    10     6    12    1
    11    29    36    1
    12    29    37    1
    13     7     9    1
    14     7    13    1
    15     8    10    1
    16     8    14    1
    17     4     5    1
    18    28    36    1
    19    30    33    1
    20    30    38    1
    21    31    34    1
    22    31    39    1
    23    32    35    1
    24    32    40    1
    25    41    43   ar
    26    15    19    2
    27    42    43   ar
    28    16    22    2
    29    17    12    1
    30    17    19   ar
    31    17    20   ar
    32    18    19   ar
    33    18    22   ar
    34    18    23    1
    35     9    10    1
    36     9    11    1
    37    10    12    1
    38    11     5    1
    39    33    34    1
    40    33    35    1
    41    34    36    1
    42    35    37    1
    43    37    43    1
    44    20    21   ar
    45    21    22   ar
@<TRIPOS>MOLECULE
*****
 43 45 0 0 0
SMALL
GASTEIGER

@<TRIPOS>ATOM
      1 P          21.9464   73.8303   -5.7468 P.3     1  UNL1        0.2189
      2 O          20.6404   74.3739   -4.9608 O.co2   1  UNL1       -0.4371
      3 O          23.0635   74.8231   -5.8816 O.2     1  UNL1       -0.5170
      4 O          21.3509   73.2500   -7.1348 O.3     1  UNL1       -0.3112
      5 C          20.3416   73.9883   -7.7987 C.3     1  UNL1        0.1811
      6 O          19.6404   71.7548   -8.3444 O.3     1  UNL1       -0.3308
      7 O          17.9412   73.0081  -10.4736 O.3     1  UNL1       -0.3794
      8 O          16.1379   72.5064   -8.4905 O.3     1  UNL1       -0.3779
      9 C          18.2554   73.4913   -9.1674 C.3     1  UNL1        0.1713
     10 C          17.4852   72.7135   -8.1214 C.3     1  UNL1        0.1895
     11 C          19.6948   73.1038   -8.8568 C.3     1  UNL1        0.1764
     12 C          18.2763   71.4187   -8.0452 C.3     1  UNL1        0.2383
     13 H          17.0261   73.2437  -10.6944 H       1  UNL1        0.2105
     14 H          15.6772   73.3600   -8.5248 H       1  UNL1        0.2106
     15 O          16.0458   70.0097   -7.0372 O.2     1  UNL1       -0.2464
     16 O          18.1658   69.1521   -3.0355 O.2     1  UNL1       -0.2670
     17 N          18.2184   70.8170   -6.7432 N.ar    1  UNL1       -0.2551
     18 N          17.1034   69.5848   -5.0447 N.ar    1  UNL1       -0.2743
     19 C          17.0502   70.1317   -6.3336 C.ar    1  UNL1        0.3323
     20 C          19.3102   70.9073   -5.8883 C.ar    1  UNL1        0.0869
     21 C          19.3461   70.3807   -4.6626 C.ar    1  UNL1        0.0795
     22 C          18.1658   69.6490   -4.1577 C.ar    1  UNL1        0.2626
     23 H          16.3010   69.1047   -4.7366 H       1  UNL1        0.1734
     24 O          22.3312   72.4907   -4.9281 O.3     1  UNL1       -0.2703
     25 P          23.1491   72.2880   -3.5485 P.3     1  UNL1        0.2208
     26 O          24.3770   73.3334   -3.6895 O.co2   1  UNL1       -0.4371
     27 O          23.5703   70.8714   -3.2847 O.2     1  UNL1       -0.5170
     28 O          22.1991   72.9267   -2.4118 O.3     1  UNL1       -0.2858
     29 O          21.4793   71.1122   -1.0707 O.3     1  UNL1       -0.3226
     30 O          19.7642   74.3280    0.8750 O.3     1  UNL1       -0.3794
     31 O          19.7436   74.1797   -2.0425 O.3     1  UNL1       -0.3775
     32 O          22.1209   73.0382    1.9856 O.3     1  UNL1       -0.3792
     33 C          20.7527   73.6503    0.0993 C.3     1  UNL1        0.1718
     34 C          20.1162   73.1099   -1.1815 C.3     1  UNL1        0.1968
     35 C          21.3096   72.5011    0.9427 C.3     1  UNL1        0.1723
     36 C          21.0818   72.1857   -1.9246 C.3     1  UNL1        0.2706
     37 C          22.1605   71.5542    0.1013 C.3     1  UNL1        0.1830
     38 H          19.3960   75.0626    0.3593 H       1  UNL1        0.2105
     39 H          19.1310   74.7703   -1.5774 H       1  UNL1        0.2106
     40 H          21.5912   73.6428    2.5285 H       1  UNL1        0.2106
     41 O          21.5705   69.3079    0.4291 O.co2   1  UNL1       -0.5466
     42 O          23.2848   70.1276    1.6894 O.co2   1  UNL1       -0.5466
     43 C          22.4224   70.2807    0.8375 C.2     1  UNL1        0.0799
@<TRIPOS>UNITY_ATOM_ATTR
2 1
charge -1
26 1
charge -1
41 1
charge -1
@<TRIPOS>BOND
     1     1     4    1
     2     1    24    1
     3     1     2    1
     4     1     3    2
     5    25    28    1
     6    25    24    1
     7    25    26    1
     8    25    27    2
     9     6    11    1
    10     6    12    1
    11    29    36    1
    12    29    37    1
    13     7     9    1
    14     7    13    1
    15     8    10    1
    16     8    14    1
    17     4     5    1
    18    28    36    1
    19    30    33    1
    20    30    38    1
    21    31    34    1
    22    31    39    1
    23    32    35    1
    24    32    40    1
    25    41    43   ar
    26    15    19    2
    27    42    43   ar
    28    16    22    2
    29    17    12    1
    30    17    19   ar
    31    17    20   ar
    32    18    19   ar
    33    18    22   ar
    34    18    23    1
    35     9    10    1
    36     9    11    1
    37    10    12    1
    38    11     5    1
    39    33    34    1
    40    33    35    1
    41    34    36    1
    42    35    37    1
    43    37    43    1
    44    20    21   ar
    45    21    22   ar
@<TRIPOS>MOLECULE
*****
 43 45 0 0 0
SMALL
GASTEIGER

@<TRIPOS>ATOM
      1 P          21.6390   70.9014   -1.1011 P.3     1  UNL1        0.2189
      2 O          23.2240   70.5773   -1.1423 O.co2   1  UNL1       -0.4371
      3 O          20.7532   69.7070   -0.9001 O.2     1  UNL1       -0.5170
      4 O          21.3803   71.7481   -2.4554 O.3     1  UNL1       -0.3112
      5 C          20.6284   71.1485   -3.4944 C.3     1  UNL1        0.1811
      6 O          18.7589   72.1218   -4.6499 O.3     1  UNL1       -0.3308
      7 O          17.0539   70.9930   -2.4568 O.3     1  UNL1       -0.3794
      8 O          16.6790   69.2064   -4.4825 O.3     1  UNL1       -0.3779
      9 C          18.2216   70.4433   -3.0674 C.3     1  UNL1        0.1713
     10 C          17.8945   69.9248   -4.4517 C.3     1  UNL1        0.1895
     11 C          19.1755   71.5898   -3.3737 C.3     1  UNL1        0.1764
     12 C          17.8362   71.2077   -5.2634 C.3     1  UNL1        0.2383
     13 H          16.4293   70.2791   -2.2518 H       1  UNL1        0.2105
     14 H          16.7673   68.3986   -3.9517 H       1  UNL1        0.2106
     15 O          16.0598   70.4305   -7.3169 O.2     1  UNL1       -0.2464
     16 O          19.4112   70.4697  -10.4809 O.2     1  UNL1       -0.2670
     17 N          18.2179   71.0076   -6.6327 N.ar    1  UNL1       -0.2551
     18 N          17.7309   70.4498   -8.8906 N.ar    1  UNL1       -0.2743
     19 C          17.2480   70.6171   -7.5860 C.ar    1  UNL1        0.3323
     20 C          19.5387   71.1993   -7.0197 C.ar    1  UNL1        0.0869
     21 C          19.9840   71.0361   -8.2670 C.ar    1  UNL1        0.0795
     22 C          19.0349   70.6281   -9.3235 C.ar    1  UNL1        0.2626
     23 H          17.0745   70.1761   -9.5715 H       1  UNL1        0.1734
     24 O          21.5282   72.0243    0.0563 O.3     1  UNL1       -0.2703
     25 P          22.1115   73.5301    0.1336 P.3     1  UNL1        0.2208
     26 O          20.8991   74.4270   -0.4547 O.co2   1  UNL1       -0.4371
     27 O          23.4215   73.7202   -0.5748 O.2     1  UNL1       -0.5170
     28 O          22.1460   73.8753    1.7090 O.3     1  UNL1       -0.2858
     29 O          24.0004   73.6929    3.1709 O.3     1  UNL1       -0.3226
     30 O          20.8298   73.1512    5.7635 O.3     1  UNL1       -0.3794
     31 O          20.8234   71.8843    3.1311 O.3     1  UNL1       -0.3775
     32 O          22.2633   75.6798    5.7198 O.3     1  UNL1       -0.3792
     33 C          21.5022   73.6764    4.6189 C.3     1  UNL1        0.1718
     34 C          21.9502   72.5267    3.7162 C.3     1  UNL1        0.1968
     35 C          22.7141   74.4734    5.1067 C.3     1  UNL1        0.1723
     36 C          22.8694   73.0314    2.6030 C.3     1  UNL1        0.2706
     37 C          23.6465   74.8314    3.9530 C.3     1  UNL1        0.1830
     38 H          20.0558   72.6406    5.4780 H       1  UNL1        0.2105
     39 H          20.2356   71.5618    3.8318 H       1  UNL1        0.2106
     40 H          21.6688   75.4660    6.4557 H       1  UNL1        0.2106
     41 O          25.5833   74.3353    5.1795 O.co2   1  UNL1       -0.5466
     42 O          25.4328   76.4216    4.2720 O.co2   1  UNL1       -0.5466
     43 C          24.9659   75.3092    4.4660 C.2     1  UNL1        0.0799
@<TRIPOS>UNITY_ATOM_ATTR
2 1
charge -1
26 1
charge -1
41 1
charge -1
@<TRIPOS>BOND
     1     1     4    1
     2     1    24    1
     3     1     2    1
     4     1     3    2
     5    25    28    1
     6    25    24    1
     7    25    26    1
     8    25    27    2
     9     6    11    1
    10     6    12    1
    11    29    36    1
    12    29    37    1
    13     7     9    1
    14     7    13    1
    15     8    10    1
    16     8    14    1
    17     4     5    1
    18    28    36    1
    19    30    33    1
    20    30    38    1
    21    31    34    1
    22    31    39    1
    23    32    35    1
    24    32    40    1
    25    41    43   ar
    26    15    19    2
    27    42    43   ar
    28    16    22    2
    29    17    12    1
    30    17    19   ar
    31    17    20   ar
    32    18    19   ar
    33    18    22   ar
    34    18    23    1
    35     9    10    1
    36     9    11    1
    37    10    12    1
    38    11     5    1
    39    33    34    1
    40    33    35    1
    41    34    36    1
    42    35    37    1
    43    37    43    1
    44    20    21   ar
    45    21    22   ar
@<TRIPOS>MOLECULE
*****
 43 45 0 0 0
SMALL
GASTEIGER

@<TRIPOS>ATOM
      1 P          22.6405   71.1125   -1.9539 P.3     1  UNL1        0.2189
      2 O          23.5220   70.6871   -3.2427 O.co2   1  UNL1       -0.4371
      3 O          23.1569   70.6079   -0.6385 O.2     1  UNL1       -0.5170
      4 O          21.1383   70.6531   -2.3419 O.3     1  UNL1       -0.3112
      5 C          20.6350   70.9968   -3.6198 C.3     1  UNL1        0.1811
      6 O          18.7567   71.9905   -4.7434 O.3     1  UNL1       -0.3308
      7 O          17.0700   70.8319   -2.5515 O.3     1  UNL1       -0.3794
      8 O          16.6731   69.0764   -4.6001 O.3     1  UNL1       -0.3779
      9 C          18.2310   70.2894   -3.1810 C.3     1  UNL1        0.1713
     10 C          17.8901   69.7922   -4.5699 C.3     1  UNL1        0.1895
     11 C          19.1841   71.4388   -3.4791 C.3     1  UNL1        0.1764
     12 C          17.8268   71.0871   -5.3618 C.3     1  UNL1        0.2383
     13 H          16.4460   70.1162   -2.3514 H       1  UNL1        0.2105
     14 H          16.7648   68.2607   -4.0822 H       1  UNL1        0.2106
     15 O          16.0168   70.4146   -7.4229 O.2     1  UNL1       -0.2464
     16 O          19.3528   70.4206  -10.6033 O.2     1  UNL1       -0.2670
     17 N          18.1954   70.9068   -6.7374 N.ar    1  UNL1       -0.2551
     18 N          17.6803   70.4173   -9.0048 N.ar    1  UNL1       -0.2743
     19 C          17.2091   70.5695   -7.6942 C.ar    1  UNL1        0.3323
     20 C          19.5198   71.0654   -7.1270 C.ar    1  UNL1        0.0869
     21 C          19.9538   70.9171   -8.3802 C.ar    1  UNL1        0.0795
     22 C          18.9872   70.5640   -9.4406 C.ar    1  UNL1        0.2626
     23 H          17.0123   70.1805   -9.6882 H       1  UNL1        0.1734
     24 O          22.5712   72.7228   -2.0771 O.3     1  UNL1       -0.2703
     25 P          23.4792   73.7630   -2.9181 P.3     1  UNL1        0.2208
     26 O          23.9084   72.9077   -4.2237 O.co2   1  UNL1       -0.4371
     27 O          24.6332   74.3358   -2.1473 O.2     1  UNL1       -0.5170
     28 O          22.4356   74.8599   -3.4749 O.3     1  UNL1       -0.2858
     29 O          20.2009   74.7156   -4.2458 O.3     1  UNL1       -0.3226
     30 O          21.7815   77.5703   -6.7796 O.3     1  UNL1       -0.3794
     31 O          23.3218   75.1854   -6.0912 O.3     1  UNL1       -0.3775
     32 O          20.0249   78.3630   -4.6032 O.3     1  UNL1       -0.3792
     33 C          21.6395   76.8494   -5.5556 C.3     1  UNL1        0.1718
     34 C          21.9424   75.3700   -5.7949 C.3     1  UNL1        0.1968
     35 C          20.1999   77.0257   -5.0673 C.3     1  UNL1        0.1723
     36 C          21.5800   74.5320   -4.5681 C.3     1  UNL1        0.2706
     37 C          19.8779   76.0668   -3.9248 C.3     1  UNL1        0.1830
     38 H          22.6888   77.4727   -7.1091 H       1  UNL1        0.2105
     39 H          23.5588   75.7145   -6.8685 H       1  UNL1        0.2106
     40 H          20.2270   78.9834   -5.3209 H       1  UNL1        0.2106
     41 O          18.1260   76.2841   -2.3803 O.co2   1  UNL1       -0.5466
     42 O          17.5619   75.7558   -4.5255 O.co2   1  UNL1       -0.5466
     43 C          18.4053   76.0103   -3.6788 C.2     1  UNL1        0.0799
@<TRIPOS>UNITY_ATOM_ATTR
2 1
charge -1
26 1
charge -1
41 1
charge -1
@<TRIPOS>BOND
     1     1     4    1
     2     1    24    1
     3     1     2    1
     4     1     3    2
     5    25    28    1
     6    25    24    1
     7    25    26    1
     8    25    27    2
     9     6    11    1
    10     6    12    1
    11    29    36    1
    12    29    37    1
    13     7     9    1
    14     7    13    1
    15     8    10    1
    16     8    14    1
    17     4     5    1
    18    28    36    1
    19    30    33    1
    20    30    38    1
    21    31    34    1
    22    31    39    1
    23    32    35    1
    24    32    40    1
    25    41    43   ar
    26    15    19    2
    27    42    43   ar
    28    16    22    2
    29    17    12    1
    30    17    19   ar
    31    17    20   ar
    32    18    19   ar
    33    18    22   ar
    34    18    23    1
    35     9    10    1
    36     9    11    1
    37    10    12    1
    38    11     5    1
    39    33    34    1
    40    33    35    1
    41    34    36    1
    42    35    37    1
    43    37    43    1
    44    20    21   ar
    45    21    22   ar
@<TRIPOS>MOLECULE
*****
 43 45 0 0 0
SMALL
GASTEIGER

@<TRIPOS>ATOM
      1 P          22.7263   71.6617   -2.1673 P.3     1  UNL1        0.2189
      2 O          23.1176   73.2086   -2.4372 O.co2   1  UNL1       -0.4371
      3 O          23.4673   70.6646   -3.0090 O.2     1  UNL1       -0.5170
      4 O          21.1145   71.6387   -2.3065 O.3     1  UNL1       -0.3112
      5 C          20.5474   71.6645   -3.6035 C.3     1  UNL1        0.1811
      6 O          18.5732   72.3584   -4.7861 O.3     1  UNL1       -0.3308
      7 O          17.0200   71.1849   -2.5053 O.3     1  UNL1       -0.3794
      8 O          16.8252   69.2500   -4.4169 O.3     1  UNL1       -0.3779
      9 C          18.2355   70.7294   -3.0999 C.3     1  UNL1        0.1713
     10 C          17.9553   70.0965   -4.4465 C.3     1  UNL1        0.1895
     11 C          19.0560   71.9522   -3.4872 C.3     1  UNL1        0.1764
     12 C          17.7506   71.3145   -5.3310 C.3     1  UNL1        0.2383
     13 H          16.4788   70.4211   -2.2494 H       1  UNL1        0.2105
     14 H          17.0056   68.4899   -3.8410 H       1  UNL1        0.2106
     15 O          16.0055   70.3919   -7.3510 O.2     1  UNL1       -0.2464
     16 O          19.3550   70.4318  -10.5170 O.2     1  UNL1       -0.2670
     17 N          18.1403   71.0753   -6.6918 N.ar    1  UNL1       -0.2551
     18 N          17.6757   70.4117   -8.9256 N.ar    1  UNL1       -0.2743
     19 C          17.1861   70.6119   -7.6282 C.ar    1  UNL1        0.3323
     20 C          19.4532   71.3007   -7.0871 C.ar    1  UNL1        0.0869
     21 C          19.9050   71.1054   -8.3275 C.ar    1  UNL1        0.0795
     22 C          18.9724   70.6213   -9.3663 C.ar    1  UNL1        0.2626
     23 H          17.0303   70.0873   -9.5947 H       1  UNL1        0.1734
     24 O          22.9559   71.5018   -0.5753 O.3     1  UNL1       -0.2703
     25 P          22.2057   70.5764    0.5176 P.3     1  UNL1        0.2208
     26 O          23.4286   69.9480    1.3721 O.co2   1  UNL1       -0.4371
     27 O          21.2760   69.5564   -0.0733 O.2     1  UNL1       -0.5170
     28 O          21.5006   71.6215    1.5240 O.3     1  UNL1       -0.2858
     29 O          22.0652   73.8876    1.1301 O.3     1  UNL1       -0.3226
     30 O          20.0418   74.1378    4.7233 O.3     1  UNL1       -0.3794
     31 O          21.9499   71.9779    4.2456 O.3     1  UNL1       -0.3775
     32 O          18.7470   74.9734    2.2582 O.3     1  UNL1       -0.3792
     33 C          20.3463   73.6073    3.4334 C.3     1  UNL1        0.1718
     34 C          21.7950   73.1191    3.4099 C.3     1  UNL1        0.1968
     35 C          20.1433   74.7212    2.4039 C.3     1  UNL1        0.1723
     36 C          22.2275   72.7577    1.9882 C.3     1  UNL1        0.2706
     37 C          20.7134   74.3326    1.0429 C.3     1  UNL1        0.1830
     38 H          20.1638   73.4476    5.3940 H       1  UNL1        0.2105
     39 H          21.6770   72.2000    5.1493 H       1  UNL1        0.2106
     40 H          18.3719   75.2216    3.1176 H       1  UNL1        0.2106
     41 O          20.6100   76.6679    0.8502 O.co2   1  UNL1       -0.5466
     42 O          21.0392   75.4854   -1.0515 O.co2   1  UNL1       -0.5466
     43 C          20.8099   75.5251    0.1480 C.2     1  UNL1        0.0799
@<TRIPOS>UNITY_ATOM_ATTR
2 1
charge -1
26 1
charge -1
41 1
charge -1
@<TRIPOS>BOND
     1     1     4    1
     2     1    24    1
     3     1     2    1
     4     1     3    2
     5    25    28    1
     6    25    24    1
     7    25    26    1
     8    25    27    2
     9     6    11    1
    10     6    12    1
    11    29    36    1
    12    29    37    1
    13     7     9    1
    14     7    13    1
    15     8    10    1
    16     8    14    1
    17     4     5    1
    18    28    36    1
    19    30    33    1
    20    30    38    1
    21    31    34    1
    22    31    39    1
    23    32    35    1
    24    32    40    1
    25    41    43   ar
    26    15    19    2
    27    42    43   ar
    28    16    22    2
    29    17    12    1
    30    17    19   ar
    31    17    20   ar
    32    18    19   ar
    33    18    22   ar
    34    18    23    1
    35     9    10    1
    36     9    11    1
    37    10    12    1
    38    11     5    1
    39    33    34    1
    40    33    35    1
    41    34    36    1
    42    35    37    1
    43    37    43    1
    44    20    21   ar
    45    21    22   ar
@<TRIPOS>MOLECULE
*****
 43 45 0 0 0
SMALL
GASTEIGER

@<TRIPOS>ATOM
      1 P          22.0975   74.0521   -6.6281 P.3     1  UNL1        0.2189
      2 O          23.1660   75.1085   -7.2293 O.co2   1  UNL1       -0.4371
      3 O          22.6989   72.9014   -5.8758 O.2     1  UNL1       -0.5170
      4 O          21.1826   73.6569   -7.9027 O.3     1  UNL1       -0.3112
      5 C          21.3217   72.3626   -8.4595 C.3     1  UNL1        0.1811
      6 O          19.4553   70.8607   -8.6564 O.3     1  UNL1       -0.3308
      7 O          18.1690   72.9774  -10.3466 O.3     1  UNL1       -0.3794
      8 O          16.9443   73.3157   -7.9338 O.3     1  UNL1       -0.3779
      9 C          19.0099   73.1224   -9.2019 C.3     1  UNL1        0.1713
     10 C          18.2466   72.7695   -7.9428 C.3     1  UNL1        0.1895
     11 C          20.0653   72.0261   -9.2524 C.3     1  UNL1        0.1764
     12 C          18.2437   71.2511   -7.9909 C.3     1  UNL1        0.2383
     13 H          17.4865   73.6671  -10.3363 H       1  UNL1        0.2105
     14 H          17.0000   74.2841   -7.9026 H       1  UNL1        0.2106
     15 O          15.9774   70.0217   -6.8381 O.2     1  UNL1       -0.2464
     16 O          18.2640   69.0223   -2.9630 O.2     1  UNL1       -0.2670
     17 N          18.2190   70.6615   -6.6822 N.ar    1  UNL1       -0.2551
     18 N          17.1181   69.5260   -4.9088 N.ar    1  UNL1       -0.2743
     19 C          17.0289   70.0696   -6.1971 C.ar    1  UNL1        0.3323
     20 C          19.3642   70.6717   -5.8952 C.ar    1  UNL1        0.0869
     21 C          19.4339   70.1495   -4.6691 C.ar    1  UNL1        0.0795
     22 C          18.2340   69.5126   -4.0877 C.ar    1  UNL1        0.2626
     23 H          16.3016   69.1102   -4.5487 H       1  UNL1        0.1734
     24 O          21.1144   74.9893   -5.7518 O.3     1  UNL1       -0.2703
     25 P          21.4101   75.9369   -4.4757 P.3     1  UNL1        0.2208
     26 O          19.9795   76.6422   -4.1994 O.co2   1  UNL1       -0.4371
     27 O          22.5459   76.8986   -4.6728 O.2     1  UNL1       -0.5170
     28 O          21.6048   74.9145   -3.2431 O.3     1  UNL1       -0.2858
     29 O          21.0444   72.6185   -3.0892 O.3     1  UNL1       -0.3226
     30 O          20.5494   73.8683    0.8173 O.3     1  UNL1       -0.3794
     31 O          19.6160   75.5282   -1.3981 O.3     1  UNL1       -0.3775
     32 O          22.8909   72.3174    0.0670 O.3     1  UNL1       -0.3792
     33 C          21.1306   73.8665   -0.4866 C.3     1  UNL1        0.1718
     34 C          20.0551   74.1809   -1.5267 C.3     1  UNL1        0.1968
     35 C          21.7244   72.4786   -0.7378 C.3     1  UNL1        0.1723
     36 C          20.5849   73.9629   -2.9447 C.3     1  UNL1        0.2706
     37 C          22.1129   72.2955   -2.2020 C.3     1  UNL1        0.1830
     38 H          20.1655   74.7406    0.9991 H       1  UNL1        0.2105
     39 H          19.2788   75.6736   -0.5006 H       1  UNL1        0.2106
     40 H          22.6574   72.4316    1.0015 H       1  UNL1        0.2106
     41 O          23.5189   70.7202   -3.2234 O.co2   1  UNL1       -0.5466
     42 O          21.6684   69.9245   -2.1550 O.co2   1  UNL1       -0.5466
     43 C          22.3770   70.8565   -2.5048 C.2     1  UNL1        0.0799
@<TRIPOS>UNITY_ATOM_ATTR
2 1
charge -1
26 1
charge -1
41 1
charge -1
@<TRIPOS>BOND
     1     1     4    1
     2     1    24    1
     3     1     2    1
     4     1     3    2
     5    25    28    1
     6    25    24    1
     7    25    26    1
     8    25    27    2
     9     6    11    1
    10     6    12    1
    11    29    36    1
    12    29    37    1
    13     7     9    1
    14     7    13    1
    15     8    10    1
    16     8    14    1
    17     4     5    1
    18    28    36    1
    19    30    33    1
    20    30    38    1
    21    31    34    1
    22    31    39    1
    23    32    35    1
    24    32    40    1
    25    41    43   ar
    26    15    19    2
    27    42    43   ar
    28    16    22    2
    29    17    12    1
    30    17    19   ar
    31    17    20   ar
    32    18    19   ar
    33    18    22   ar
    34    18    23    1
    35     9    10    1
    36     9    11    1
    37    10    12    1
    38    11     5    1
    39    33    34    1
    40    33    35    1
    41    34    36    1
    42    35    37    1
    43    37    43    1
    44    20    21   ar
    45    21    22   ar
@<TRIPOS>MOLECULE
*****
 43 45 0 0 0
SMALL
GASTEIGER

@<TRIPOS>ATOM
      1 P          22.7532   71.9400   -2.2098 P.3     1  UNL1        0.2189
      2 O          23.3782   70.7933   -3.1655 O.co2   1  UNL1       -0.4371
      3 O          22.5997   71.5498   -0.7690 O.2     1  UNL1       -0.5170
      4 O          21.3927   72.3785   -2.9678 O.3     1  UNL1       -0.3112
      5 C          20.6101   71.3743   -3.5873 C.3     1  UNL1        0.1811
      6 O          18.6850   72.2122   -4.7575 O.3     1  UNL1       -0.3308
      7 O          17.0567   71.0814   -2.5077 O.3     1  UNL1       -0.3794
      8 O          16.7531   69.2061   -4.4641 O.3     1  UNL1       -0.3779
      9 C          18.2448   70.5678   -3.1103 C.3     1  UNL1        0.1713
     10 C          17.9319   69.9840   -4.4717 C.3     1  UNL1        0.1895
     11 C          19.1383   71.7479   -3.4674 C.3     1  UNL1        0.1764
     12 C          17.8033   71.2321   -5.3281 C.3     1  UNL1        0.2383
     13 H          16.4699   70.3456   -2.2707 H       1  UNL1        0.2105
     14 H          16.8858   68.4235   -3.9056 H       1  UNL1        0.2106
     15 O          16.0286   70.3847   -7.3551 O.2     1  UNL1       -0.2464
     16 O          19.3691   70.3787  -10.5308 O.2     1  UNL1       -0.2670
     17 N          18.1827   71.0014   -6.6933 N.ar    1  UNL1       -0.2551
     18 N          17.6942   70.3816   -8.9346 N.ar    1  UNL1       -0.2743
     19 C          17.2138   70.5768   -7.6330 C.ar    1  UNL1        0.3323
     20 C          19.5001   71.1971   -7.0896 C.ar    1  UNL1        0.0869
     21 C          19.9430   71.0070   -8.3340 C.ar    1  UNL1        0.0795
     22 C          18.9949   70.5625   -9.3765 C.ar    1  UNL1        0.2626
     23 H          17.0386   70.0839   -9.6060 H       1  UNL1        0.1734
     24 O          23.7336   73.1995   -2.4654 O.3     1  UNL1       -0.2703
     25 P          23.8227   74.2424   -3.6976 P.3     1  UNL1        0.2208
     26 O          23.3572   75.6424   -3.0316 O.co2   1  UNL1       -0.4371
     27 O          23.0281   73.8378   -4.9054 O.2     1  UNL1       -0.5170
     28 O          25.4029   74.4247   -3.9661 O.3     1  UNL1       -0.2858
     29 O          26.8765   75.7446   -2.6640 O.3     1  UNL1       -0.3226
     30 O          28.7964   75.7012   -6.3218 O.3     1  UNL1       -0.3794
     31 O          25.8987   76.0415   -6.1743 O.3     1  UNL1       -0.3775
     32 O          29.7839   74.0587   -4.1360 O.3     1  UNL1       -0.3792
     33 C          27.9802   75.1815   -5.2722 C.3     1  UNL1        0.1718
     34 C          26.7774   76.1003   -5.0566 C.3     1  UNL1        0.1968
     35 C          28.8310   75.1115   -4.0021 C.3     1  UNL1        0.1723
     36 C          26.0067   75.7058   -3.7960 C.3     1  UNL1        0.2706
     37 C          27.9721   74.8384   -2.7707 C.3     1  UNL1        0.1830
     38 H          28.2768   75.7549   -7.1394 H       1  UNL1        0.2105
     39 H          26.3812   76.2904   -6.9778 H       1  UNL1        0.2106
     40 H          30.3369   74.2204   -4.9163 H       1  UNL1        0.2106
     41 O          29.6582   74.1167   -1.3085 O.co2   1  UNL1       -0.5466
     42 O          28.5823   76.0561   -0.7791 O.co2   1  UNL1       -0.5466
     43 C          28.7441   75.0963   -1.5178 C.2     1  UNL1        0.0799
@<TRIPOS>UNITY_ATOM_ATTR
2 1
charge -1
26 1
charge -1
41 1
charge -1
@<TRIPOS>BOND
     1     1     4    1
     2     1    24    1
     3     1     2    1
     4     1     3    2
     5    25    28    1
     6    25    24    1
     7    25    26    1
     8    25    27    2
     9     6    11    1
    10     6    12    1
    11    29    36    1
    12    29    37    1
    13     7     9    1
    14     7    13    1
    15     8    10    1
    16     8    14    1
    17     4     5    1
    18    28    36    1
    19    30    33    1
    20    30    38    1
    21    31    34    1
    22    31    39    1
    23    32    35    1
    24    32    40    1
    25    41    43   ar
    26    15    19    2
    27    42    43   ar
    28    16    22    2
    29    17    12    1
    30    17    19   ar
    31    17    20   ar
    32    18    19   ar
    33    18    22   ar
    34    18    23    1
    35     9    10    1
    36     9    11    1
    37    10    12    1
    38    11     5    1
    39    33    34    1
    40    33    35    1
    41    34    36    1
    42    35    37    1
    43    37    43    1
    44    20    21   ar
    45    21    22   ar
@<TRIPOS>MOLECULE
*****
 43 45 0 0 0
SMALL
GASTEIGER

@<TRIPOS>ATOM
      1 P          23.0040   72.2559   -3.3803 P.3     1  UNL1        0.2189
      2 O          23.4362   73.0333   -4.7323 O.co2   1  UNL1       -0.4371
      3 O          23.5357   70.8582   -3.2558 O.2     1  UNL1       -0.5170
      4 O          21.3928   72.4003   -3.3472 O.3     1  UNL1       -0.3112
      5 C          20.6060   71.2352   -3.5143 C.3     1  UNL1        0.1811
      6 O          18.6852   72.1277   -4.6508 O.3     1  UNL1       -0.3308
      7 O          17.0497   70.9044   -2.4553 O.3     1  UNL1       -0.3794
      8 O          16.7457   69.1165   -4.4917 O.3     1  UNL1       -0.3779
      9 C          18.2379   70.4146   -3.0773 C.3     1  UNL1        0.1713
     10 C          17.9263   69.8911   -4.4634 C.3     1  UNL1        0.1895
     11 C          19.1348   71.6068   -3.3812 C.3     1  UNL1        0.1764
     12 C          17.8024   71.1755   -5.2651 C.3     1  UNL1        0.2383
     13 H          16.4608   70.1605   -2.2516 H       1  UNL1        0.2105
     14 H          16.8754   68.3101   -3.9675 H       1  UNL1        0.2106
     15 O          16.0407   70.3718   -7.3211 O.2     1  UNL1       -0.2464
     16 O          19.3760   70.5473  -10.4974 O.2     1  UNL1       -0.2670
     17 N          18.1839   71.0033   -6.6383 N.ar    1  UNL1       -0.2551
     18 N          17.7038   70.4590   -8.9009 N.ar    1  UNL1       -0.2743
     19 C          17.2217   70.5963   -7.5925 C.ar    1  UNL1        0.3323
     20 C          19.4969   71.2383   -7.0280 C.ar    1  UNL1        0.0869
     21 C          19.9414   71.1033   -8.2790 C.ar    1  UNL1        0.0795
     22 C          19.0002   70.6806   -9.3367 C.ar    1  UNL1        0.2626
     23 H          17.0528   70.1746   -9.5825 H       1  UNL1        0.1734
     24 O          23.4834   73.2652   -2.2123 O.3     1  UNL1       -0.2703
     25 P          22.8630   74.6678   -1.7008 P.3     1  UNL1        0.2208
     26 O          21.5676   74.8675   -2.6506 O.co2   1  UNL1       -0.4371
     27 O          23.8311   75.8150   -1.7260 O.2     1  UNL1       -0.5170
     28 O          22.2530   74.3384   -0.2441 O.3     1  UNL1       -0.2858
     29 O          21.3664   72.1498   -0.0617 O.3     1  UNL1       -0.3226
     30 O          20.1502   73.8493    3.5021 O.3     1  UNL1       -0.3794
     31 O          19.9915   75.3638    1.0091 O.3     1  UNL1       -0.3775
     32 O          22.3697   71.9722    3.4631 O.3     1  UNL1       -0.3792
     33 C          21.0130   73.6451    2.3833 C.3     1  UNL1        0.1718
     34 C          20.2617   73.9693    1.0918 C.3     1  UNL1        0.1968
     35 C          21.4553   72.1800    2.3883 C.3     1  UNL1        0.1723
     36 C          21.0724   73.5455   -0.1338 C.3     1  UNL1        0.2706
     37 C          22.1453   71.8019    1.0809 C.3     1  UNL1        0.1830
     38 H          19.8563   74.7737    3.5196 H       1  UNL1        0.2105
     39 H          19.4776   75.6397    1.7838 H       1  UNL1        0.2106
     40 H          21.9429   72.2094    4.3012 H       1  UNL1        0.2106
     41 O          23.3851   69.8807    1.6036 O.co2   1  UNL1       -0.5466
     42 O          21.4924   69.5921    0.3653 O.co2   1  UNL1       -0.5466
     43 C          22.2751   70.3185    0.9593 C.2     1  UNL1        0.0799
@<TRIPOS>UNITY_ATOM_ATTR
2 1
charge -1
26 1
charge -1
41 1
charge -1
@<TRIPOS>BOND
     1     1     4    1
     2     1    24    1
     3     1     2    1
     4     1     3    2
     5    25    28    1
     6    25    24    1
     7    25    26    1
     8    25    27    2
     9     6    11    1
    10     6    12    1
    11    29    36    1
    12    29    37    1
    13     7     9    1
    14     7    13    1
    15     8    10    1
    16     8    14    1
    17     4     5    1
    18    28    36    1
    19    30    33    1
    20    30    38    1
    21    31    34    1
    22    31    39    1
    23    32    35    1
    24    32    40    1
    25    41    43   ar
    26    15    19    2
    27    42    43   ar
    28    16    22    2
    29    17    12    1
    30    17    19   ar
    31    17    20   ar
    32    18    19   ar
    33    18    22   ar
    34    18    23    1
    35     9    10    1
    36     9    11    1
    37    10    12    1
    38    11     5    1
    39    33    34    1
    40    33    35    1
    41    34    36    1
    42    35    37    1
    43    37    43    1
    44    20    21   ar
    45    21    22   ar
@<TRIPOS>MOLECULE
*****
 43 45 0 0 0
SMALL
GASTEIGER

@<TRIPOS>ATOM
      1 P          22.5998   71.1450   -1.9047 P.3     1  UNL1        0.2189
      2 O          23.5884   70.6501   -3.0864 O.co2   1  UNL1       -0.4371
      3 O          22.2115   70.0838   -0.9174 O.2     1  UNL1       -0.5170
      4 O          21.3767   71.8531   -2.6926 O.3     1  UNL1       -0.3112
      5 C          20.5944   71.0672   -3.5729 C.3     1  UNL1        0.1811
      6 O          18.7098   72.0279   -4.7144 O.3     1  UNL1       -0.3308
      7 O          17.0229   70.8415   -2.5376 O.3     1  UNL1       -0.3794
      8 O          16.6753   69.0785   -4.5887 O.3     1  UNL1       -0.3779
      9 C          18.1989   70.3187   -3.1560 C.3     1  UNL1        0.1713
     10 C          17.8796   69.8151   -4.5477 C.3     1  UNL1        0.1895
     11 C          19.1348   71.4842   -3.4459 C.3     1  UNL1        0.1764
     12 C          17.8013   71.1084   -5.3408 C.3     1  UNL1        0.2383
     13 H          16.4095   70.1152   -2.3429 H       1  UNL1        0.2105
     14 H          16.7763   68.2647   -4.0696 H       1  UNL1        0.2106
     15 O          16.0282   70.3743   -7.4129 O.2     1  UNL1       -0.2464
     16 O          19.3869   70.4677  -10.5680 O.2     1  UNL1       -0.2670
     17 N          18.1858   70.9339   -6.7129 N.ar    1  UNL1       -0.2551
     18 N          17.7029   70.4205   -8.9822 N.ar    1  UNL1       -0.2743
     19 C          17.2173   70.5637   -7.6757 C.ar    1  UNL1        0.3323
     20 C          19.5078   71.1305   -7.0931 C.ar    1  UNL1        0.0869
     21 C          19.9556   70.9904   -8.3423 C.ar    1  UNL1        0.0795
     22 C          19.0082   70.6045   -9.4086 C.ar    1  UNL1        0.2626
     23 H          17.0476   70.1612   -9.6697 H       1  UNL1        0.1734
     24 O          23.3957   72.3991   -1.2671 O.3     1  UNL1       -0.2703
     25 P          22.9155   73.9093   -0.9471 P.3     1  UNL1        0.2208
     26 O          24.1529   74.5192   -0.1002 O.co2   1  UNL1       -0.4371
     27 O          21.5873   73.9991   -0.2531 O.2     1  UNL1       -0.5170
     28 O          22.9810   74.6695   -2.3685 O.3     1  UNL1       -0.2858
     29 O          23.4220   73.7705   -4.5148 O.3     1  UNL1       -0.3226
     30 O          24.9261   77.6008   -4.8823 O.3     1  UNL1       -0.3794
     31 O          25.3919   76.0541   -2.4481 O.3     1  UNL1       -0.3775
     32 O          22.3830   76.9079   -6.1085 O.3     1  UNL1       -0.3792
     33 C          24.0465   76.5873   -4.3953 C.3     1  UNL1        0.1718
     34 C          24.8541   75.5221   -3.6532 C.3     1  UNL1        0.1968
     35 C          23.3266   75.9691   -5.5959 C.3     1  UNL1        0.1723
     36 C          23.9833   74.3104   -3.3178 C.3     1  UNL1        0.2706
     37 C          22.5836   74.6950   -5.2044 C.3     1  UNL1        0.1830
     38 H          25.3948   78.0080   -4.1368 H       1  UNL1        0.2105
     39 H          25.9453   76.8235   -2.6535 H       1  UNL1        0.2106
     40 H          22.8431   77.7235   -6.3613 H       1  UNL1        0.2106
     41 O          22.5942   72.6446   -6.3433 O.co2   1  UNL1       -0.5466
     42 O          21.5281   74.3894   -7.3524 O.co2   1  UNL1       -0.5466
     43 C          22.1672   73.9295   -6.4181 C.2     1  UNL1        0.0799
@<TRIPOS>UNITY_ATOM_ATTR
2 1
charge -1
26 1
charge -1
41 1
charge -1
@<TRIPOS>BOND
     1     1     4    1
     2     1    24    1
     3     1     2    1
     4     1     3    2
     5    25    28    1
     6    25    24    1
     7    25    26    1
     8    25    27    2
     9     6    11    1
    10     6    12    1
    11    29    36    1
    12    29    37    1
    13     7     9    1
    14     7    13    1
    15     8    10    1
    16     8    14    1
    17     4     5    1
    18    28    36    1
    19    30    33    1
    20    30    38    1
    21    31    34    1
    22    31    39    1
    23    32    35    1
    24    32    40    1
    25    41    43   ar
    26    15    19    2
    27    42    43   ar
    28    16    22    2
    29    17    12    1
    30    17    19   ar
    31    17    20   ar
    32    18    19   ar
    33    18    22   ar
    34    18    23    1
    35     9    10    1
    36     9    11    1
    37    10    12    1
    38    11     5    1
    39    33    34    1
    40    33    35    1
    41    34    36    1
    42    35    37    1
    43    37    43    1
    44    20    21   ar
    45    21    22   ar
@<TRIPOS>MOLECULE
*****
 43 45 0 0 0
SMALL
GASTEIGER

@<TRIPOS>ATOM
      1 P          22.9202   72.1740   -3.0502 P.3     1  UNL1        0.2189
      2 O          23.5759   70.7085   -3.2527 O.co2   1  UNL1       -0.4371
      3 O          22.8376   72.6399   -1.6261 O.2     1  UNL1       -0.5170
      4 O          21.5124   72.0826   -3.8423 O.3     1  UNL1       -0.3112
      5 C          20.6870   70.9529   -3.6260 C.3     1  UNL1        0.1811
      6 O          18.8114   71.9713   -4.7317 O.3     1  UNL1       -0.3308
      7 O          17.1310   70.8391   -2.5212 O.3     1  UNL1       -0.3794
      8 O          16.6888   69.0867   -4.5633 O.3     1  UNL1       -0.3779
      9 C          18.2779   70.2796   -3.1618 C.3     1  UNL1        0.1713
     10 C          17.9160   69.7855   -4.5464 C.3     1  UNL1        0.1895
     11 C          19.2438   71.4152   -3.4711 C.3     1  UNL1        0.1764
     12 C          17.8626   71.0802   -5.3394 C.3     1  UNL1        0.2383
     13 H          16.4992   70.1323   -2.3138 H       1  UNL1        0.2105
     14 H          16.7745   68.2705   -4.0452 H       1  UNL1        0.2106
     15 O          16.0189   70.4548   -7.3853 O.2     1  UNL1       -0.2464
     16 O          19.3259   70.3849  -10.5951 O.2     1  UNL1       -0.2670
     17 N          18.2147   70.8931   -6.7184 N.ar    1  UNL1       -0.2551
     18 N          17.6679   70.4196   -8.9818 N.ar    1  UNL1       -0.2743
     19 C          17.2120   70.5812   -7.6669 C.ar    1  UNL1        0.3323
     20 C          19.5390   71.0202   -7.1196 C.ar    1  UNL1        0.0869
     21 C          19.9582   70.8633   -8.3767 C.ar    1  UNL1        0.0795
     22 C          18.9741   70.5353   -9.4290 C.ar    1  UNL1        0.2626
     23 H          16.9884   70.2000   -9.6596 H       1  UNL1        0.1734
     24 O          23.8192   73.1101   -4.0138 O.3     1  UNL1       -0.2703
     25 P          23.9134   74.7188   -4.1438 P.3     1  UNL1        0.2208
     26 O          25.5081   74.9966   -4.1503 O.co2   1  UNL1       -0.4371
     27 O          23.1595   75.4675   -3.0831 O.2     1  UNL1       -0.5170
     28 O          23.4387   75.0359   -5.6526 O.3     1  UNL1       -0.2858
     29 O          21.4396   75.9939   -6.4862 O.3     1  UNL1       -0.3226
     30 O          22.3835   73.2924   -9.4660 O.3     1  UNL1       -0.3794
     31 O          22.6733   72.5564   -6.6538 O.3     1  UNL1       -0.3775
     32 O          22.8470   76.1334   -9.8718 O.3     1  UNL1       -0.3792
     33 C          22.6531   74.2226   -8.4171 C.3     1  UNL1        0.1718
     34 C          22.0146   73.7288   -7.1187 C.3     1  UNL1        0.1968
     35 C          22.0611   75.5749   -8.8207 C.3     1  UNL1        0.1723
     36 C          22.0836   74.8029   -6.0322 C.3     1  UNL1        0.2706
     37 C          22.0510   76.5509   -7.6477 C.3     1  UNL1        0.1830
     38 H          22.7505   72.4254   -9.2317 H       1  UNL1        0.2105
     39 H          22.6337   71.8707   -7.3384 H       1  UNL1        0.2106
     40 H          22.8617   75.5219  -10.6245 H       1  UNL1        0.2106
     41 O          20.2786   77.4290   -8.9081 O.co2   1  UNL1       -0.5466
     42 O          21.2778   78.8236   -7.4061 O.co2   1  UNL1       -0.5466
     43 C          21.1869   77.7322   -7.9480 C.2     1  UNL1        0.0799
@<TRIPOS>UNITY_ATOM_ATTR
2 1
charge -1
26 1
charge -1
41 1
charge -1
@<TRIPOS>BOND
     1     1     4    1
     2     1    24    1
     3     1     2    1
     4     1     3    2
     5    25    28    1
     6    25    24    1
     7    25    26    1
     8    25    27    2
     9     6    11    1
    10     6    12    1
    11    29    36    1
    12    29    37    1
    13     7     9    1
    14     7    13    1
    15     8    10    1
    16     8    14    1
    17     4     5    1
    18    28    36    1
    19    30    33    1
    20    30    38    1
    21    31    34    1
    22    31    39    1
    23    32    35    1
    24    32    40    1
    25    41    43   ar
    26    15    19    2
    27    42    43   ar
    28    16    22    2
    29    17    12    1
    30    17    19   ar
    31    17    20   ar
    32    18    19   ar
    33    18    22   ar
    34    18    23    1
    35     9    10    1
    36     9    11    1
    37    10    12    1
    38    11     5    1
    39    33    34    1
    40    33    35    1
    41    34    36    1
    42    35    37    1
    43    37    43    1
    44    20    21   ar
    45    21    22   ar
@<TRIPOS>MOLECULE
*****
 43 45 0 0 0
SMALL
GASTEIGER

@<TRIPOS>ATOM
      1 P          22.4350   71.4629   -1.8549 P.3     1  UNL1        0.2189
      2 O          23.0899   71.7816   -3.3001 O.co2   1  UNL1       -0.4371
      3 O          22.7785   70.1172   -1.2866 O.2     1  UNL1       -0.5170
      4 O          20.8579   71.7527   -2.0706 O.3     1  UNL1       -0.3112
      5 C          20.3448   71.7531   -3.3902 C.3     1  UNL1        0.1811
      6 O          18.4036   72.4004   -4.6514 O.3     1  UNL1       -0.3308
      7 O          16.7896   71.1420   -2.4598 O.3     1  UNL1       -0.3794
      8 O          16.7451   69.2314   -4.4049 O.3     1  UNL1       -0.3779
      9 C          18.0450   70.7356   -3.0050 C.3     1  UNL1        0.1713
     10 C          17.8466   70.1146   -4.3715 C.3     1  UNL1        0.1895
     11 C          18.8410   71.9902   -3.3377 C.3     1  UNL1        0.1764
     12 C          17.6414   71.3387   -5.2474 C.3     1  UNL1        0.2383
     13 H          16.2632   70.3572   -2.2393 H       1  UNL1        0.2105
     14 H          16.9246   68.4688   -3.8320 H       1  UNL1        0.2106
     15 O          16.0411   70.3181   -7.3388 O.2     1  UNL1       -0.2464
     16 O          19.5042   70.5921  -10.3680 O.2     1  UNL1       -0.2670
     17 N          18.0995   71.1332   -6.5923 N.ar    1  UNL1       -0.2551
     18 N          17.7677   70.4546   -8.8452 N.ar    1  UNL1       -0.2743
     19 C          17.2151   70.6151   -7.5678 C.ar    1  UNL1        0.3323
     20 C          19.4098   71.4450   -6.9340 C.ar    1  UNL1        0.0869
     21 C          19.9222   71.2866   -8.1559 C.ar    1  UNL1        0.0795
     22 C          19.0647   70.7497   -9.2330 C.ar    1  UNL1        0.2626
     23 H          17.1717   70.0935   -9.5407 H       1  UNL1        0.1734
     24 O          22.9150   72.7166   -0.9545 O.3     1  UNL1       -0.2703
     25 P          22.2194   73.4420    0.3117 P.3     1  UNL1        0.2208
     26 O          21.8691   72.2077    1.2987 O.co2   1  UNL1       -0.4371
     27 O          21.0422   74.3038   -0.0425 O.2     1  UNL1       -0.5170
     28 O          23.4235   74.2232    1.0482 O.3     1  UNL1       -0.2858
     29 O          22.4932   75.1523    3.0181 O.3     1  UNL1       -0.3226
     30 O          26.4606   76.2520    3.3623 O.3     1  UNL1       -0.3794
     31 O          25.0916   76.4336    0.7879 O.3     1  UNL1       -0.3775
     32 O          25.4048   74.0749    4.9736 O.3     1  UNL1       -0.3792
     33 C          25.3682   75.4189    2.9743 C.3     1  UNL1        0.1718
     34 C          24.4448   76.1916    2.0321 C.3     1  UNL1        0.1968
     35 C          24.6136   75.0083    4.2407 C.3     1  UNL1        0.1723
     36 C          23.1504   75.4178    1.7783 C.3     1  UNL1        0.2706
     37 C          23.2756   74.3559    3.9051 C.3     1  UNL1        0.1830
     38 H          26.9550   76.5254    2.5735 H       1  UNL1        0.2105
     39 H          25.9139   76.9240    0.9415 H       1  UNL1        0.2106
     40 H          26.2594   74.4777    5.1933 H       1  UNL1        0.2106
     41 O          22.6942   73.1345    5.8213 O.co2   1  UNL1       -0.5466
     42 O          21.5676   75.0813    5.4471 O.co2   1  UNL1       -0.5466
     43 C          22.4121   74.2608    5.1207 C.2     1  UNL1        0.0799
@<TRIPOS>UNITY_ATOM_ATTR
2 1
charge -1
26 1
charge -1
41 1
charge -1
@<TRIPOS>BOND
     1     1     4    1
     2     1    24    1
     3     1     2    1
     4     1     3    2
     5    25    28    1
     6    25    24    1
     7    25    26    1
     8    25    27    2
     9     6    11    1
    10     6    12    1
    11    29    36    1
    12    29    37    1
    13     7     9    1
    14     7    13    1
    15     8    10    1
    16     8    14    1
    17     4     5    1
    18    28    36    1
    19    30    33    1
    20    30    38    1
    21    31    34    1
    22    31    39    1
    23    32    35    1
    24    32    40    1
    25    41    43   ar
    26    15    19    2
    27    42    43   ar
    28    16    22    2
    29    17    12    1
    30    17    19   ar
    31    17    20   ar
    32    18    19   ar
    33    18    22   ar
    34    18    23    1
    35     9    10    1
    36     9    11    1
    37    10    12    1
    38    11     5    1
    39    33    34    1
    40    33    35    1
    41    34    36    1
    42    35    37    1
    43    37    43    1
    44    20    21   ar
    45    21    22   ar
@<TRIPOS>MOLECULE
*****
 43 45 0 0 0
SMALL
GASTEIGER

@<TRIPOS>ATOM
      1 P          22.8479   71.8899   -2.5477 P.3     1  UNL1        0.2189
      2 O          23.5702   70.6290   -3.2599 O.co2   1  UNL1       -0.4371
      3 O          22.7209   71.7878   -1.0560 O.2     1  UNL1       -0.5170
      4 O          21.4590   72.0525   -3.3616 O.3     1  UNL1       -0.3112
      5 C          20.5945   70.9351   -3.4537 C.3     1  UNL1        0.1811
      6 O          18.7611   72.0524   -4.5345 O.3     1  UNL1       -0.3308
      7 O          17.0108   70.8035   -2.4445 O.3     1  UNL1       -0.3794
      8 O          16.5958   69.1958   -4.6076 O.3     1  UNL1       -0.3779
      9 C          18.1655   70.2698   -3.0928 C.3     1  UNL1        0.1713
     10 C          17.8316   69.8732   -4.5153 C.3     1  UNL1        0.1895
     11 C          19.1544   71.4083   -3.3033 C.3     1  UNL1        0.1764
     12 C          17.8157   71.2178   -5.2222 C.3     1  UNL1        0.2383
     13 H          16.3644   70.0945   -2.2993 H       1  UNL1        0.2105
     14 H          16.6573   68.3462   -4.1426 H       1  UNL1        0.2106
     15 O          16.0651   71.6325   -7.3993 O.2     1  UNL1       -0.2464
     16 O          19.3974   70.8013  -10.4731 O.2     1  UNL1       -0.2670
     17 N          18.1995   71.1161   -6.6018 N.ar    1  UNL1       -0.2551
     18 N          17.7262   71.2171   -8.9281 N.ar    1  UNL1       -0.2743
     19 C          17.2428   71.3436   -7.6191 C.ar    1  UNL1        0.3323
     20 C          19.5100   70.7962   -6.9353 C.ar    1  UNL1        0.0869
     21 C          19.9559   70.6794   -8.1877 C.ar    1  UNL1        0.0795
     22 C          19.0199   70.9003   -9.3095 C.ar    1  UNL1        0.2626
     23 H          17.0780   71.3689   -9.6535 H       1  UNL1        0.1734
     24 O          23.7214   73.1480   -3.0646 O.3     1  UNL1       -0.2703
     25 P          23.3913   74.2914   -4.1588 P.3     1  UNL1        0.2208
     26 O          22.3493   75.2566   -3.3823 O.co2   1  UNL1       -0.4371
     27 O          22.8850   73.7619   -5.4692 O.2     1  UNL1       -0.5170
     28 O          24.7472   75.1588   -4.2662 O.3     1  UNL1       -0.2858
     29 O          26.9921   74.5416   -3.8319 O.3     1  UNL1       -0.3226
     30 O          26.9911   78.5278   -2.7463 O.3     1  UNL1       -0.3794
     31 O          24.7566   76.7935   -2.0159 O.3     1  UNL1       -0.3775
     32 O          28.1995   77.6996   -5.2573 O.3     1  UNL1       -0.3792
     33 C          26.5880   77.3809   -3.4947 C.3     1  UNL1        0.1718
     34 C          25.9937   76.3362   -2.5498 C.3     1  UNL1        0.1968
     35 C          27.8239   76.8184   -4.2005 C.3     1  UNL1        0.1723
     36 C          25.7630   75.0101   -3.2758 C.3     1  UNL1        0.2706
     37 C          27.5486   75.4384   -4.7907 C.3     1  UNL1        0.1830
     38 H          26.2219   78.9024   -2.2889 H       1  UNL1        0.2105
     39 H          24.8955   77.6348   -1.5540 H       1  UNL1        0.2106
     40 H          28.3773   78.5816   -4.8950 H       1  UNL1        0.2106
     41 O          29.4617   74.2782   -4.0867 O.co2   1  UNL1       -0.5466
     42 O          29.2402   74.6582   -6.3241 O.co2   1  UNL1       -0.5466
     43 C          28.8237   74.7640   -5.1803 C.2     1  UNL1        0.0799
@<TRIPOS>UNITY_ATOM_ATTR
2 1
charge -1
26 1
charge -1
41 1
charge -1
@<TRIPOS>BOND
     1     1     4    1
     2     1    24    1
     3     1     2    1
     4     1     3    2
     5    25    28    1
     6    25    24    1
     7    25    26    1
     8    25    27    2
     9     6    11    1
    10     6    12    1
    11    29    36    1
    12    29    37    1
    13     7     9    1
    14     7    13    1
    15     8    10    1
    16     8    14    1
    17     4     5    1
    18    28    36    1
    19    30    33    1
    20    30    38    1
    21    31    34    1
    22    31    39    1
    23    32    35    1
    24    32    40    1
    25    41    43   ar
    26    15    19    2
    27    42    43   ar
    28    16    22    2
    29    17    12    1
    30    17    19   ar
    31    17    20   ar
    32    18    19   ar
    33    18    22   ar
    34    18    23    1
    35     9    10    1
    36     9    11    1
    37    10    12    1
    38    11     5    1
    39    33    34    1
    40    33    35    1
    41    34    36    1
    42    35    37    1
    43    37    43    1
    44    20    21   ar
    45    21    22   ar
@<TRIPOS>MOLECULE
*****
 43 45 0 0 0
SMALL
GASTEIGER

@<TRIPOS>ATOM
      1 P          22.2533   73.3748   -5.2148 P.3     1  UNL1        0.2189
      2 O          22.6988   74.7553   -5.9322 O.co2   1  UNL1       -0.4371
      3 O          23.3793   72.5704   -4.6343 O.2     1  UNL1       -0.5170
      4 O          21.3596   72.6251   -6.3361 O.3     1  UNL1       -0.3112
      5 C          20.7990   73.3979   -7.3816 C.3     1  UNL1        0.1811
      6 O          20.0196   71.1616   -7.7931 O.3     1  UNL1       -0.3308
      7 O          18.4788   72.3204  -10.0897 O.3     1  UNL1       -0.3794
      8 O          16.5662   72.0502   -8.1649 O.3     1  UNL1       -0.3779
      9 C          18.7559   72.8881   -8.8093 C.3     1  UNL1        0.1713
     10 C          17.9037   72.2266   -7.7471 C.3     1  UNL1        0.1895
     11 C          20.1600   72.4638   -8.4012 C.3     1  UNL1        0.1764
     12 C          18.6291   70.9085   -7.5364 C.3     1  UNL1        0.2383
     13 H          17.5866   72.5777  -10.3717 H       1  UNL1        0.2105
     14 H          16.1479   72.9177   -8.2849 H       1  UNL1        0.2106
     15 O          16.2925   69.6769   -6.5365 O.2     1  UNL1       -0.2464
     16 O          18.1864   69.0388   -2.3832 O.2     1  UNL1       -0.2670
     17 N          18.4844   70.4113   -6.1975 N.ar    1  UNL1       -0.2551
     18 N          17.2376   69.3612   -4.4686 N.ar    1  UNL1       -0.2743
     19 C          17.2684   69.8096   -5.7956 C.ar    1  UNL1        0.3323
     20 C          19.5391   70.5202   -5.2994 C.ar    1  UNL1        0.0869
     21 C          19.4949   70.0880   -4.0376 C.ar    1  UNL1        0.0795
     22 C          18.2604   69.4479   -3.5379 C.ar    1  UNL1        0.2626
     23 H          16.4008   68.9406   -4.1651 H       1  UNL1        0.1734
     24 O          21.1508   73.8642   -4.1389 O.3     1  UNL1       -0.2703
     25 P          21.3162   74.4487   -2.6407 P.3     1  UNL1        0.2208
     26 O          19.8535   75.0632   -2.3198 O.co2   1  UNL1       -0.4371
     27 O          22.4456   75.4250   -2.4817 O.2     1  UNL1       -0.5170
     28 O          21.4238   73.1418   -1.7011 O.3     1  UNL1       -0.2858
     29 O          23.0507   73.4676   -0.0110 O.3     1  UNL1       -0.3226
     30 O          21.9270   69.5471    0.6485 O.3     1  UNL1       -0.3794
     31 O          22.3240   70.5363   -2.0715 O.3     1  UNL1       -0.3775
     32 O          20.9811   71.6531    2.4152 O.3     1  UNL1       -0.3792
     33 C          21.7429   70.9069    0.2547 C.3     1  UNL1        0.1718
     34 C          22.6964   71.2410   -0.8927 C.3     1  UNL1        0.1968
     35 C          22.0367   71.7942    1.4664 C.3     1  UNL1        0.1723
     36 C          22.6931   72.7416   -1.1876 C.3     1  UNL1        0.2706
     37 C          22.1418   73.2636    1.0685 C.3     1  UNL1        0.1830
     38 H          21.7458   68.9645   -0.1057 H       1  UNL1        0.2105
     39 H          22.3238   69.5834   -1.8915 H       1  UNL1        0.2106
     40 H          20.9036   70.7222    2.6766 H       1  UNL1        0.2106
     41 O          23.4096   73.2696    3.0419 O.co2   1  UNL1       -0.5466
     42 O          22.6588   75.2840    2.2819 O.co2   1  UNL1       -0.5466
     43 C          22.7452   74.0701    2.1721 C.2     1  UNL1        0.0799
@<TRIPOS>UNITY_ATOM_ATTR
2 1
charge -1
26 1
charge -1
41 1
charge -1
@<TRIPOS>BOND
     1     1     4    1
     2     1    24    1
     3     1     2    1
     4     1     3    2
     5    25    28    1
     6    25    24    1
     7    25    26    1
     8    25    27    2
     9     6    11    1
    10     6    12    1
    11    29    36    1
    12    29    37    1
    13     7     9    1
    14     7    13    1
    15     8    10    1
    16     8    14    1
    17     4     5    1
    18    28    36    1
    19    30    33    1
    20    30    38    1
    21    31    34    1
    22    31    39    1
    23    32    35    1
    24    32    40    1
    25    41    43   ar
    26    15    19    2
    27    42    43   ar
    28    16    22    2
    29    17    12    1
    30    17    19   ar
    31    17    20   ar
    32    18    19   ar
    33    18    22   ar
    34    18    23    1
    35     9    10    1
    36     9    11    1
    37    10    12    1
    38    11     5    1
    39    33    34    1
    40    33    35    1
    41    34    36    1
    42    35    37    1
    43    37    43    1
    44    20    21   ar
    45    21    22   ar
@<TRIPOS>MOLECULE
*****
 43 45 0 0 0
SMALL
GASTEIGER

@<TRIPOS>ATOM
      1 P          23.0921   72.5058   -3.5043 P.3     1  UNL1        0.2189
      2 O          23.3727   70.9566   -3.1301 O.co2   1  UNL1       -0.4371
      3 O          24.2695   73.2442   -4.0700 O.2     1  UNL1       -0.5170
      4 O          22.4597   73.1243   -2.1495 O.3     1  UNL1       -0.3112
      5 C          22.2606   72.2645   -1.0424 C.3     1  UNL1        0.1811
      6 O          20.9869   72.4279    0.9895 O.3     1  UNL1       -0.3308
      7 O          18.9465   73.9147   -0.6284 O.3     1  UNL1       -0.3794
      8 O          20.2549   75.9233    0.6714 O.3     1  UNL1       -0.3779
      9 C          20.3706   73.9382   -0.7281 C.3     1  UNL1        0.1713
     10 C          20.9633   74.7276    0.4199 C.3     1  UNL1        0.1895
     11 C          20.8844   72.5328   -0.4471 C.3     1  UNL1        0.1764
     12 C          20.8650   73.7372    1.5676 C.3     1  UNL1        0.2383
     13 H          18.5950   74.8020   -0.8040 H       1  UNL1        0.2105
     14 H          20.3485   76.5203   -0.0880 H       1  UNL1        0.2106
     15 O          20.5235   73.4178    4.3529 O.2     1  UNL1       -0.2464
     16 O          24.9340   74.4563    5.1972 O.2     1  UNL1       -0.2670
     17 N          21.9073   73.9180    2.5381 N.ar    1  UNL1       -0.2551
     18 N          22.7202   73.9363    4.7709 N.ar    1  UNL1       -0.2743
     19 C          21.6309   73.7333    3.9135 C.ar    1  UNL1        0.3323
     20 C          23.1859   74.2722    2.1250 C.ar    1  UNL1        0.0869
     21 C          24.2142   74.4621    2.9540 C.ar    1  UNL1        0.0795
     22 C          24.0096   74.2899    4.4073 C.ar    1  UNL1        0.2626
     23 H          22.5517   73.8155    5.7333 H       1  UNL1        0.1734
     24 O          21.8160   72.4150   -4.4924 O.3     1  UNL1       -0.2703
     25 P          21.4553   73.2350   -5.8382 P.3     1  UNL1        0.2208
     26 O          22.6355   72.8065   -6.8599 O.co2   1  UNL1       -0.4371
     27 O          21.3180   74.7166   -5.6384 O.2     1  UNL1       -0.5170
     28 O          20.1340   72.5121   -6.4161 O.3     1  UNL1       -0.2858
     29 O          19.1257   70.4120   -5.9895 O.3     1  UNL1       -0.3226
     30 O          18.4728   70.8496  -10.0454 O.3     1  UNL1       -0.3794
     31 O          21.0468   71.5799   -8.8726 O.3     1  UNL1       -0.3775
     32 O          16.2952   71.2615   -8.1641 O.3     1  UNL1       -0.3792
     33 C          18.6444   71.2895   -8.6982 C.3     1  UNL1        0.1718
     34 C          20.0228   70.8633   -8.1924 C.3     1  UNL1        0.1968
     35 C          17.5444   70.6498   -7.8481 C.3     1  UNL1        0.1723
     36 C          20.1550   71.1122   -6.6892 C.3     1  UNL1        0.2706
     37 C          17.8143   70.8338   -6.3575 C.3     1  UNL1        0.1830
     38 H          19.1610   71.2434  -10.6045 H       1  UNL1        0.2105
     39 H          20.9687   71.4268   -9.8269 H       1  UNL1        0.2106
     40 H          16.1115   71.1516   -9.1102 H       1  UNL1        0.2106
     41 O          16.1598   69.1712   -6.3491 O.co2   1  UNL1       -0.5466
     42 O          16.9110   69.9013   -4.3238 O.co2   1  UNL1       -0.5466
     43 C          16.9343   69.9408   -5.5448 C.2     1  UNL1        0.0799
@<TRIPOS>UNITY_ATOM_ATTR
2 1
charge -1
26 1
charge -1
41 1
charge -1
@<TRIPOS>BOND
     1     1     4    1
     2     1    24    1
     3     1     2    1
     4     1     3    2
     5    25    28    1
     6    25    24    1
     7    25    26    1
     8    25    27    2
     9     6    11    1
    10     6    12    1
    11    29    36    1
    12    29    37    1
    13     7     9    1
    14     7    13    1
    15     8    10    1
    16     8    14    1
    17     4     5    1
    18    28    36    1
    19    30    33    1
    20    30    38    1
    21    31    34    1
    22    31    39    1
    23    32    35    1
    24    32    40    1
    25    41    43   ar
    26    15    19    2
    27    42    43   ar
    28    16    22    2
    29    17    12    1
    30    17    19   ar
    31    17    20   ar
    32    18    19   ar
    33    18    22   ar
    34    18    23    1
    35     9    10    1
    36     9    11    1
    37    10    12    1
    38    11     5    1
    39    33    34    1
    40    33    35    1
    41    34    36    1
    42    35    37    1
    43    37    43    1
    44    20    21   ar
    45    21    22   ar
@<TRIPOS>MOLECULE
*****
 43 45 0 0 0
SMALL
GASTEIGER

@<TRIPOS>ATOM
      1 P          22.4366   73.3059   -4.1245 P.3     1  UNL1        0.2189
      2 O          23.7697   72.3919   -4.0462 O.co2   1  UNL1       -0.4371
      3 O          22.1246   74.0795   -2.8771 O.2     1  UNL1       -0.5170
      4 O          21.2892   72.2779   -4.6191 O.3     1  UNL1       -0.3112
      5 C          20.7177   71.3953   -3.6709 C.3     1  UNL1        0.1811
      6 O          18.7372   72.1777   -4.7859 O.3     1  UNL1       -0.3308
      7 O          17.2069   71.0129   -2.4853 O.3     1  UNL1       -0.3794
      8 O          16.8951   69.1229   -4.4261 O.3     1  UNL1       -0.3779
      9 C          18.3898   70.5286   -3.1214 C.3     1  UNL1        0.1713
     10 C          18.0521   69.9315   -4.4711 C.3     1  UNL1        0.1895
     11 C          19.2407   71.7304   -3.5085 C.3     1  UNL1        0.1764
     12 C          17.8653   71.1726   -5.3271 C.3     1  UNL1        0.2383
     13 H          16.6471   70.2629   -2.2288 H       1  UNL1        0.2105
     14 H          17.0650   68.3462   -3.8694 H       1  UNL1        0.2106
     15 O          15.9933   70.6399   -7.3737 O.2     1  UNL1       -0.2464
     16 O          19.3012   70.3220  -10.5676 O.2     1  UNL1       -0.2670
     17 N          18.2100   70.9468   -6.7023 N.ar    1  UNL1       -0.2551
     18 N          17.6427   70.4811   -8.9623 N.ar    1  UNL1       -0.2743
     19 C          17.1931   70.6873   -7.6514 C.ar    1  UNL1        0.3323
     20 C          19.5412   70.9851   -7.0989 C.ar    1  UNL1        0.0869
     21 C          19.9543   70.7867   -8.3522 C.ar    1  UNL1        0.0795
     22 C          18.9553   70.5087   -9.4049 C.ar    1  UNL1        0.2626
     23 H          16.9532   70.2966   -9.6404 H       1  UNL1        0.1734
     24 O          22.6975   74.2168   -5.4341 O.3     1  UNL1       -0.2703
     25 P          22.3898   73.9412   -6.9971 P.3     1  UNL1        0.2208
     26 O          20.8287   74.3439   -7.1434 O.co2   1  UNL1       -0.4371
     27 O          22.7143   72.5479   -7.4523 O.2     1  UNL1       -0.5170
     28 O          23.1856   75.1044   -7.7822 O.3     1  UNL1       -0.2858
     29 O          22.5245   76.6123   -9.4846 O.3     1  UNL1       -0.3226
     30 O          26.4399   75.8196  -10.5377 O.3     1  UNL1       -0.3794
     31 O          24.6852   73.6668   -9.6317 O.3     1  UNL1       -0.3775
     32 O          25.7501   78.3492   -9.2823 O.3     1  UNL1       -0.3792
     33 C          25.3424   76.0022   -9.6431 C.3     1  UNL1        0.1718
     34 C          24.2492   74.9811   -9.9592 C.3     1  UNL1        0.1968
     35 C          24.8116   77.4253   -9.8301 C.3     1  UNL1        0.1723
     36 C          22.9701   75.2902   -9.1800 C.3     1  UNL1        0.2706
     37 C          23.4711   77.6167   -9.1266 C.3     1  UNL1        0.1830
     38 H          26.7936   74.9218  -10.4368 H       1  UNL1        0.2105
     39 H          25.4966   73.4641  -10.1224 H       1  UNL1        0.2106
     40 H          26.6077   78.2376   -9.7214 H       1  UNL1        0.2106
     41 O          23.6176   79.5652  -10.4242 O.co2   1  UNL1       -0.5466
     42 O          21.6944   79.2450   -9.2419 O.co2   1  UNL1       -0.5466
     43 C          22.8098   78.8777   -9.5794 C.2     1  UNL1        0.0799
@<TRIPOS>UNITY_ATOM_ATTR
2 1
charge -1
26 1
charge -1
41 1
charge -1
@<TRIPOS>BOND
     1     1     4    1
     2     1    24    1
     3     1     2    1
     4     1     3    2
     5    25    28    1
     6    25    24    1
     7    25    26    1
     8    25    27    2
     9     6    11    1
    10     6    12    1
    11    29    36    1
    12    29    37    1
    13     7     9    1
    14     7    13    1
    15     8    10    1
    16     8    14    1
    17     4     5    1
    18    28    36    1
    19    30    33    1
    20    30    38    1
    21    31    34    1
    22    31    39    1
    23    32    35    1
    24    32    40    1
    25    41    43   ar
    26    15    19    2
    27    42    43   ar
    28    16    22    2
    29    17    12    1
    30    17    19   ar
    31    17    20   ar
    32    18    19   ar
    33    18    22   ar
    34    18    23    1
    35     9    10    1
    36     9    11    1
    37    10    12    1
    38    11     5    1
    39    33    34    1
    40    33    35    1
    41    34    36    1
    42    35    37    1
    43    37    43    1
    44    20    21   ar
    45    21    22   ar
@<TRIPOS>MOLECULE
*****
 43 45 0 0 0
SMALL
GASTEIGER

@<TRIPOS>ATOM
      1 P          23.0920   72.2494   -3.2546 P.3     1  UNL1        0.2189
      2 O          23.4573   70.6729   -3.2478 O.co2   1  UNL1       -0.4371
      3 O          24.1634   73.1456   -3.8031 O.2     1  UNL1       -0.5170
      4 O          22.6369   72.5493   -1.7312 O.3     1  UNL1       -0.3112
      5 C          22.1569   73.8422   -1.4111 C.3     1  UNL1        0.1811
      6 O          21.2057   73.1824    0.6955 O.3     1  UNL1       -0.3308
      7 O          18.7963   74.7784   -0.1041 O.3     1  UNL1       -0.3794
      8 O          20.0785   76.4581    1.6193 O.3     1  UNL1       -0.3779
      9 C          20.1774   75.0406   -0.3537 C.3     1  UNL1        0.1713
     10 C          20.8578   75.5160    0.9125 C.3     1  UNL1        0.1895
     11 C          20.8701   73.7085   -0.6068 C.3     1  UNL1        0.1764
     12 C          21.0418   74.2170    1.6785 C.3     1  UNL1        0.2383
     13 H          18.3326   75.6148    0.0605 H       1  UNL1        0.2105
     14 H          19.9908   77.2671    1.0903 H       1  UNL1        0.2106
     15 O          23.5125   75.3913    0.9761 O.2     1  UNL1       -0.2464
     16 O          25.4116   74.2502    5.0178 O.2     1  UNL1       -0.2670
     17 N          22.1986   74.2411    2.5282 N.ar    1  UNL1       -0.2551
     18 N          24.4563   74.8210    2.9893 N.ar    1  UNL1       -0.2743
     19 C          23.3912   74.8565    2.0798 C.ar    1  UNL1        0.3323
     20 C          22.1444   73.6615    3.7900 C.ar    1  UNL1        0.0869
     21 C          23.1680   73.6356    4.6459 C.ar    1  UNL1        0.0795
     22 C          24.4506   74.2560    4.2544 C.ar    1  UNL1        0.2626
     23 H          25.2978   75.2414    2.6987 H       1  UNL1        0.1734
     24 O          21.6952   72.2947   -4.0668 O.3     1  UNL1       -0.2703
     25 P          21.2506   73.1463   -5.3671 P.3     1  UNL1        0.2208
     26 O          22.2995   72.6637   -6.5016 O.co2   1  UNL1       -0.4371
     27 O          21.2159   74.6312   -5.1484 O.2     1  UNL1       -0.5170
     28 O          19.8410   72.5026   -5.8156 O.3     1  UNL1       -0.2858
     29 O          19.8652   70.2553   -5.0683 O.3     1  UNL1       -0.3226
     30 O          16.1039   70.5405   -6.7535 O.3     1  UNL1       -0.3794
     31 O          18.4150   71.7396   -8.0784 O.3     1  UNL1       -0.3775
     32 O          16.4128   70.5556   -3.8629 O.3     1  UNL1       -0.3792
     33 C          17.2648   71.0126   -6.0698 C.3     1  UNL1        0.1718
     34 C          18.4900   70.8507   -6.9698 C.3     1  UNL1        0.1968
     35 C          17.4299   70.1865   -4.7922 C.3     1  UNL1        0.1723
     36 C          19.7788   71.1289   -6.1948 C.3     1  UNL1        0.2706
     37 C          18.7913   70.4261   -4.1459 C.3     1  UNL1        0.1830
     38 H          15.9788   71.0509   -7.5690 H       1  UNL1        0.2105
     39 H          17.5995   71.5688   -8.5745 H       1  UNL1        0.2106
     40 H          15.5411   70.4081   -4.2620 H       1  UNL1        0.2106
     41 O          20.3767   69.0154   -3.1470 O.co2   1  UNL1       -0.5466
     42 O          18.2525   68.9420   -2.3215 O.co2   1  UNL1       -0.5466
     43 C          19.0744   69.3913   -3.1061 C.2     1  UNL1        0.0799
@<TRIPOS>UNITY_ATOM_ATTR
2 1
charge -1
26 1
charge -1
41 1
charge -1
@<TRIPOS>BOND
     1     1     4    1
     2     1    24    1
     3     1     2    1
     4     1     3    2
     5    25    28    1
     6    25    24    1
     7    25    26    1
     8    25    27    2
     9     6    11    1
    10     6    12    1
    11    29    36    1
    12    29    37    1
    13     7     9    1
    14     7    13    1
    15     8    10    1
    16     8    14    1
    17     4     5    1
    18    28    36    1
    19    30    33    1
    20    30    38    1
    21    31    34    1
    22    31    39    1
    23    32    35    1
    24    32    40    1
    25    41    43   ar
    26    15    19    2
    27    42    43   ar
    28    16    22    2
    29    17    12    1
    30    17    19   ar
    31    17    20   ar
    32    18    19   ar
    33    18    22   ar
    34    18    23    1
    35     9    10    1
    36     9    11    1
    37    10    12    1
    38    11     5    1
    39    33    34    1
    40    33    35    1
    41    34    36    1
    42    35    37    1
    43    37    43    1
    44    20    21   ar
    45    21    22   ar
@<TRIPOS>MOLECULE
*****
 43 45 0 0 0
SMALL
GASTEIGER

@<TRIPOS>ATOM
      1 P          21.4324   70.2896   -0.7923 P.3     1  UNL1        0.2189
      2 O          22.7372   70.4829   -1.7298 O.co2   1  UNL1       -0.4371
      3 O          21.6776   69.5502    0.4902 O.2     1  UNL1       -0.5170
      4 O          20.3357   69.6321   -1.7838 O.3     1  UNL1       -0.3112
      5 C          20.2339   70.1304   -3.1051 C.3     1  UNL1        0.1811
      6 O          19.6823   72.1102   -4.3515 O.3     1  UNL1       -0.3308
      7 O          17.4625   72.5107   -2.3757 O.3     1  UNL1       -0.3794
      8 O          16.1622   71.4524   -4.5264 O.3     1  UNL1       -0.3779
      9 C          17.9802   71.2962   -2.9193 C.3     1  UNL1        0.1713
     10 C          17.5260   71.1284   -4.3538 C.3     1  UNL1        0.1895
     11 C          19.4859   71.4571   -3.0786 C.3     1  UNL1        0.1764
     12 C          18.4512   72.0814   -5.0911 C.3     1  UNL1        0.2383
     13 H          16.5017   72.4319   -2.2648 H       1  UNL1        0.2105
     14 H          15.6147   70.8168   -4.0382 H       1  UNL1        0.2106
     15 O          20.6836   72.9109   -6.6093 O.2     1  UNL1       -0.2464
     16 O          19.3934   70.3707  -10.2324 O.2     1  UNL1       -0.2670
     17 N          18.7231   71.6523   -6.4338 N.ar    1  UNL1       -0.2551
     18 N          20.0384   71.6457   -8.4127 N.ar    1  UNL1       -0.2743
     19 C          19.8723   72.1286   -7.1080 C.ar    1  UNL1        0.3323
     20 C          17.8582   70.7687   -7.0680 C.ar    1  UNL1        0.0869
     21 C          18.0299   70.3173   -8.3120 C.ar    1  UNL1        0.0795
     22 C          19.2054   70.7669   -9.0862 C.ar    1  UNL1        0.2626
     23 H          20.8302   71.9649   -8.9030 H       1  UNL1        0.1734
     24 O          20.8927   71.8017   -0.6052 O.3     1  UNL1       -0.2703
     25 P          21.6230   73.1263   -0.0343 P.3     1  UNL1        0.2208
     26 O          22.6499   72.5360    1.0690 O.co2   1  UNL1       -0.4371
     27 O          20.6812   74.1697    0.4932 O.2     1  UNL1       -0.5170
     28 O          22.5672   73.6263   -1.2430 O.3     1  UNL1       -0.2858
     29 O          23.7872   75.6562   -1.2566 O.3     1  UNL1       -0.3226
     30 O          23.3517   74.9100   -5.2966 O.3     1  UNL1       -0.3794
     31 O          21.1205   74.4757   -3.4615 O.3     1  UNL1       -0.3775
     32 O          25.9057   74.4346   -3.9920 O.3     1  UNL1       -0.3792
     33 C          23.5014   74.5721   -3.9177 C.3     1  UNL1        0.1718
     34 C          22.3292   75.1445   -3.1203 C.3     1  UNL1        0.1968
     35 C          24.8219   75.1686   -3.4253 C.3     1  UNL1        0.1723
     36 C          22.5694   75.0029   -1.6166 C.3     1  UNL1        0.2706
     37 C          24.9303   75.1024   -1.9046 C.3     1  UNL1        0.1830
     38 H          22.5191   74.5414   -5.6315 H       1  UNL1        0.2105
     39 H          20.9620   74.5612   -4.4144 H       1  UNL1        0.2106
     40 H          25.8483   74.4687   -4.9596 H       1  UNL1        0.2106
     41 O          25.5929   77.2108   -1.1189 O.co2   1  UNL1       -0.5466
     42 O          27.2077   75.6103   -1.2908 O.co2   1  UNL1       -0.5466
     43 C          26.0457   75.9671   -1.4142 C.2     1  UNL1        0.0799
@<TRIPOS>UNITY_ATOM_ATTR
2 1
charge -1
26 1
charge -1
41 1
charge -1
@<TRIPOS>BOND
     1     1     4    1
     2     1    24    1
     3     1     2    1
     4     1     3    2
     5    25    28    1
     6    25    24    1
     7    25    26    1
     8    25    27    2
     9     6    11    1
    10     6    12    1
    11    29    36    1
    12    29    37    1
    13     7     9    1
    14     7    13    1
    15     8    10    1
    16     8    14    1
    17     4     5    1
    18    28    36    1
    19    30    33    1
    20    30    38    1
    21    31    34    1
    22    31    39    1
    23    32    35    1
    24    32    40    1
    25    41    43   ar
    26    15    19    2
    27    42    43   ar
    28    16    22    2
    29    17    12    1
    30    17    19   ar
    31    17    20   ar
    32    18    19   ar
    33    18    22   ar
    34    18    23    1
    35     9    10    1
    36     9    11    1
    37    10    12    1
    38    11     5    1
    39    33    34    1
    40    33    35    1
    41    34    36    1
    42    35    37    1
    43    37    43    1
    44    20    21   ar
    45    21    22   ar
@<TRIPOS>MOLECULE
*****
 43 45 0 0 0
SMALL
GASTEIGER

@<TRIPOS>ATOM
      1 P          22.0561   70.9476   -2.9578 P.3     1  UNL1        0.2189
      2 O          21.3000   69.5771   -2.5467 O.co2   1  UNL1       -0.4371
      3 O          23.5335   70.8130   -3.1835 O.2     1  UNL1       -0.5170
      4 O          21.6137   71.9955   -1.8072 O.3     1  UNL1       -0.3112
      5 C          22.6102   72.5135   -0.9451 C.3     1  UNL1        0.1811
      6 O          21.9296   74.5303    0.1717 O.3     1  UNL1       -0.3308
      7 O          23.8730   75.9539   -1.6138 O.3     1  UNL1       -0.3794
      8 O          25.2487   75.7644    0.7330 O.3     1  UNL1       -0.3779
      9 C          23.9736   74.6601   -1.0183 C.3     1  UNL1        0.1713
     10 C          24.2672   74.7858    0.4617 C.3     1  UNL1        0.1895
     11 C          22.5853   74.0349   -1.0157 C.3     1  UNL1        0.1764
     12 C          22.9043   75.1530    1.0235 C.3     1  UNL1        0.2383
     13 H          24.7480   76.3732   -1.6267 H       1  UNL1        0.2105
     14 H          26.0977   75.4842    0.3553 H       1  UNL1        0.2106
     15 O          22.7593   72.4279    1.7507 O.2     1  UNL1       -0.2464
     16 O          22.1954   73.4588    6.2075 O.2     1  UNL1       -0.2670
     17 N          22.7201   74.6812    2.3667 N.ar    1  UNL1       -0.2551
     18 N          22.4776   72.9439    3.9696 N.ar    1  UNL1       -0.2743
     19 C          22.6607   73.2912    2.6247 C.ar    1  UNL1        0.3323
     20 C          22.6021   75.5902    3.4111 C.ar    1  UNL1        0.0869
     21 C          22.4280   75.2440    4.6880 C.ar    1  UNL1        0.0795
     22 C          22.3543   73.8115    5.0428 C.ar    1  UNL1        0.2626
     23 H          22.4311   71.9819    4.1737 H       1  UNL1        0.1734
     24 O          21.2209   71.4499   -4.2474 O.3     1  UNL1       -0.2703
     25 P          21.2630   72.8462   -5.0612 P.3     1  UNL1        0.2208
     26 O          22.7753   72.8936   -5.6364 O.co2   1  UNL1       -0.4371
     27 O          20.8733   74.0456   -4.2467 O.2     1  UNL1       -0.5170
     28 O          20.3411   72.5908   -6.3602 O.3     1  UNL1       -0.2858
     29 O          19.1502   70.5436   -6.3506 O.3     1  UNL1       -0.3226
     30 O          18.5541   71.8449  -10.2261 O.3     1  UNL1       -0.3794
     31 O          21.1778   72.0972   -8.9664 O.3     1  UNL1       -0.3775
     32 O          16.4139   72.0569   -8.2702 O.3     1  UNL1       -0.3792
     33 C          18.7585   71.9875   -8.8204 C.3     1  UNL1        0.1718
     34 C          20.0921   71.3499   -8.4300 C.3     1  UNL1        0.1968
     35 C          17.6032   71.2878   -8.1011 C.3     1  UNL1        0.1723
     36 C          20.2399   71.2783   -6.9095 C.3     1  UNL1        0.2706
     37 C          17.8825   71.1434   -6.6079 C.3     1  UNL1        0.1830
     38 H          19.2764   72.2819  -10.7041 H       1  UNL1        0.2105
     39 H          21.0903   72.1469   -9.9309 H       1  UNL1        0.2106
     40 H          16.2250   72.1563   -9.2164 H       1  UNL1        0.2106
     41 O          16.1001   69.6498   -6.9138 O.co2   1  UNL1       -0.5466
     42 O          16.8834   69.9130   -4.7887 O.co2   1  UNL1       -0.5466
     43 C          16.9242   70.1849   -5.9792 C.2     1  UNL1        0.0799
@<TRIPOS>UNITY_ATOM_ATTR
2 1
charge -1
26 1
charge -1
41 1
charge -1
@<TRIPOS>BOND
     1     1     4    1
     2     1    24    1
     3     1     2    1
     4     1     3    2
     5    25    28    1
     6    25    24    1
     7    25    26    1
     8    25    27    2
     9     6    11    1
    10     6    12    1
    11    29    36    1
    12    29    37    1
    13     7     9    1
    14     7    13    1
    15     8    10    1
    16     8    14    1
    17     4     5    1
    18    28    36    1
    19    30    33    1
    20    30    38    1
    21    31    34    1
    22    31    39    1
    23    32    35    1
    24    32    40    1
    25    41    43   ar
    26    15    19    2
    27    42    43   ar
    28    16    22    2
    29    17    12    1
    30    17    19   ar
    31    17    20   ar
    32    18    19   ar
    33    18    22   ar
    34    18    23    1
    35     9    10    1
    36     9    11    1
    37    10    12    1
    38    11     5    1
    39    33    34    1
    40    33    35    1
    41    34    36    1
    42    35    37    1
    43    37    43    1
    44    20    21   ar
    45    21    22   ar
@<TRIPOS>MOLECULE
*****
 43 45 0 0 0
SMALL
GASTEIGER

@<TRIPOS>ATOM
      1 P          22.8554   71.8782   -3.2969 P.3     1  UNL1        0.2189
      2 O          23.3954   70.3527   -3.3082 O.co2   1  UNL1       -0.4371
      3 O          23.8227   72.8966   -3.8251 O.2     1  UNL1       -0.5170
      4 O          22.3600   72.1037   -1.7732 O.3     1  UNL1       -0.3112
      5 C          22.1576   73.4287   -1.3171 C.3     1  UNL1        0.1811
      6 O          21.1518   73.0784    0.8377 O.3     1  UNL1       -0.3308
      7 O          18.8801   74.7652   -0.1552 O.3     1  UNL1       -0.3794
      8 O          20.2893   76.5140    1.3914 O.3     1  UNL1       -0.3779
      9 C          20.2784   74.8881   -0.4165 C.3     1  UNL1        0.1713
     10 C          20.9920   75.4419    0.7986 C.3     1  UNL1        0.1895
     11 C          20.8625   73.4856   -0.5172 C.3     1  UNL1        0.1764
     12 C          21.0694   74.2229    1.7018 C.3     1  UNL1        0.2383
     13 H          18.4848   75.6488   -0.0866 H       1  UNL1        0.2105
     14 H          20.2680   77.2655    0.7775 H       1  UNL1        0.2106
     15 O          23.5987   75.2226    0.9405 O.2     1  UNL1       -0.2464
     16 O          25.4218   74.2634    5.0637 O.2     1  UNL1       -0.2670
     17 N          22.2224   74.2465    2.5566 N.ar    1  UNL1       -0.2551
     18 N          24.5045   74.7430    2.9945 N.ar    1  UNL1       -0.2743
     19 C          23.4462   74.7701    2.0767 C.ar    1  UNL1        0.3323
     20 C          22.1341   73.7568    3.8540 C.ar    1  UNL1        0.0869
     21 C          23.1516   73.7377    4.7172 C.ar    1  UNL1        0.0795
     22 C          24.4654   74.2656    4.2945 C.ar    1  UNL1        0.2626
     23 H          25.3673   75.1004    2.6825 H       1  UNL1        0.1734
     24 O          21.4674   71.7779   -4.1193 O.3     1  UNL1       -0.2703
     25 P          20.1706   70.8372   -3.9021 P.3     1  UNL1        0.2208
     26 O          19.2663   71.6880   -2.8635 O.co2   1  UNL1       -0.4371
     27 O          20.4905   69.4433   -3.4455 O.2     1  UNL1       -0.5170
     28 O          19.3688   70.9165   -5.2997 O.3     1  UNL1       -0.2858
     29 O          19.3903   72.8935   -6.6036 O.3     1  UNL1       -0.3226
     30 O          16.0860   70.9264   -8.1136 O.3     1  UNL1       -0.3794
     31 O          16.5890   70.9830   -5.2364 O.3     1  UNL1       -0.3775
     32 O          18.5684   70.9815   -9.6253 O.3     1  UNL1       -0.3792
     33 C          17.3835   71.0343   -7.5281 C.3     1  UNL1        0.1718
     34 C          17.2830   71.7742   -6.1940 C.3     1  UNL1        0.1968
     35 C          18.2778   71.8079   -8.4997 C.3     1  UNL1        0.1723
     36 C          18.6718   72.1110   -5.6492 C.3     1  UNL1        0.2706
     37 C          19.5927   72.2160   -7.8418 C.3     1  UNL1        0.1830
     38 H          15.5000   70.4383   -7.5138 H       1  UNL1        0.2105
     39 H          15.7070   70.7654   -5.5756 H       1  UNL1        0.2106
     40 H          17.7397   70.7146  -10.0530 H       1  UNL1        0.2106
     41 O          19.4872   74.2782   -8.9543 O.co2   1  UNL1       -0.5466
     42 O          21.4670   73.1502   -9.0401 O.co2   1  UNL1       -0.5466
     43 C          20.3059   73.2354   -8.6692 C.2     1  UNL1        0.0799
@<TRIPOS>UNITY_ATOM_ATTR
2 1
charge -1
26 1
charge -1
41 1
charge -1
@<TRIPOS>BOND
     1     1     4    1
     2     1    24    1
     3     1     2    1
     4     1     3    2
     5    25    28    1
     6    25    24    1
     7    25    26    1
     8    25    27    2
     9     6    11    1
    10     6    12    1
    11    29    36    1
    12    29    37    1
    13     7     9    1
    14     7    13    1
    15     8    10    1
    16     8    14    1
    17     4     5    1
    18    28    36    1
    19    30    33    1
    20    30    38    1
    21    31    34    1
    22    31    39    1
    23    32    35    1
    24    32    40    1
    25    41    43   ar
    26    15    19    2
    27    42    43   ar
    28    16    22    2
    29    17    12    1
    30    17    19   ar
    31    17    20   ar
    32    18    19   ar
    33    18    22   ar
    34    18    23    1
    35     9    10    1
    36     9    11    1
    37    10    12    1
    38    11     5    1
    39    33    34    1
    40    33    35    1
    41    34    36    1
    42    35    37    1
    43    37    43    1
    44    20    21   ar
    45    21    22   ar
