@<TRIPOS>MOLECULE
*****
 43 45 0 0 0
SMALL
GASTEIGER

@<TRIPOS>ATOM
      1 P          22.0335   71.4793   -2.3602 P.3     1  UNL1        0.2189
      2 O          21.6864   72.7864   -3.2481 O.co2   1  UNL1       -0.4371
      3 O          23.2850   70.7550   -2.7609 O.2     1  UNL1       -0.5170
      4 O          20.6717   70.6067   -2.4048 O.3     1  UNL1       -0.3112
      5 C          20.0444   70.3962   -3.6578 C.3     1  UNL1        0.1811
      6 O          18.3344   71.5924   -4.8489 O.3     1  UNL1       -0.3308
      7 O          16.4040   70.4254   -2.8735 O.3     1  UNL1       -0.3794
      8 O          16.0523   68.8336   -5.0596 O.3     1  UNL1       -0.3779
      9 C          17.5706   69.8396   -3.4489 C.3     1  UNL1        0.1713
     10 C          17.3097   69.4558   -4.8906 C.3     1  UNL1        0.1895
     11 C          18.6210   70.9333   -3.5960 C.3     1  UNL1        0.1764
     12 C          17.3968   70.7991   -5.5949 C.3     1  UNL1        0.2383
     13 H          15.7189   69.7459   -2.7694 H       1  UNL1        0.2105
     14 H          16.0469   67.9831   -4.5934 H       1  UNL1        0.2106
     15 O          15.7205   70.3428   -7.8220 O.2     1  UNL1       -0.2464
     16 O          19.2875   70.3536  -10.7404 O.2     1  UNL1       -0.2670
     17 N          17.8608   70.6788   -6.9483 N.ar    1  UNL1       -0.2551
     18 N          17.4979   70.3487   -9.2733 N.ar    1  UNL1       -0.2743
     19 C          16.9366   70.4490   -7.9940 C.ar    1  UNL1        0.3323
     20 C          19.2186   70.7889   -7.2277 C.ar    1  UNL1        0.0869
     21 C          19.7381   70.6896   -8.4531 C.ar    1  UNL1        0.0795
     22 C          18.8406   70.4498   -9.6016 C.ar    1  UNL1        0.2626
     23 H          16.8732   70.1883  -10.0175 H       1  UNL1        0.1734
     24 O          22.0450   72.0578   -0.8508 O.3     1  UNL1       -0.2703
     25 P          22.5127   71.3824    0.5413 P.3     1  UNL1        0.2208
     26 O          24.0333   70.9210    0.2374 O.co2   1  UNL1       -0.4371
     27 O          21.6152   70.2792    1.0222 O.2     1  UNL1       -0.5170
     28 O          22.6595   72.6201    1.5668 O.3     1  UNL1       -0.2858
     29 O          24.1582   73.0271    3.3570 O.3     1  UNL1       -0.3258
     30 O          20.6970   74.5219    5.0412 O.3     1  UNL1       -0.3794
     31 O          22.7548   76.3335    4.1859 O.3     1  UNL1       -0.3794
     32 O          20.5927   72.1378    3.4027 O.3     1  UNL1       -0.3775
     33 C          21.6139   74.2414    3.9801 C.3     1  UNL1        0.1715
     34 C          22.9438   74.9260    4.3020 C.3     1  UNL1        0.1694
     35 C          21.8007   72.7294    3.8686 C.3     1  UNL1        0.1967
     36 C          24.0532   74.4556    3.3518 C.3     1  UNL1        0.1761
     37 C          22.9602   72.3708    2.9374 C.3     1  UNL1        0.2704
     38 H          20.5736   75.4803    5.1170 H       1  UNL1        0.2105
     39 H          22.0514   76.6175    4.7906 H       1  UNL1        0.2105
     40 H          19.8665   72.3721    4.0007 H       1  UNL1        0.2106
     41 O          25.7960   74.4193    4.9859 O.3     1  UNL1       -0.3794
     42 C          25.4206   75.0048    3.7528 C.3     1  UNL1        0.1693
     43 H          26.6646   74.7594    5.2534 H       1  UNL1        0.2105
@<TRIPOS>UNITY_ATOM_ATTR
2 1
charge -1
26 1
charge -1
@<TRIPOS>BOND
     1    25    28    1
     2    25    24    1
     3    25    26    1
     4    25    27    2
     5     1     4    1
     6     1    24    1
     7     1     2    1
     8     1     3    2
     9     6    11    1
    10     6    12    1
    11    29    36    1
    12    29    37    1
    13     7     9    1
    14     7    13    1
    15     8    10    1
    16     8    14    1
    17    28    37    1
    18     4     5    1
    19    30    33    1
    20    30    38    1
    21    31    34    1
    22    31    39    1
    23    32    35    1
    24    32    40    1
    25    41    42    1
    26    41    43    1
    27    15    19    2
    28    16    22    2
    29    17    12    1
    30    17    19   ar
    31    17    20   ar
    32    18    19   ar
    33    18    22   ar
    34    18    23    1
    35     9    10    1
    36     9    11    1
    37    10    12    1
    38    11     5    1
    39    33    34    1
    40    33    35    1
    41    34    36    1
    42    35    37    1
    43    36    42    1
    44    20    21   ar
    45    21    22   ar
@<TRIPOS>MOLECULE
*****
 43 45 0 0 0
SMALL
GASTEIGER

@<TRIPOS>ATOM
      1 P          22.0609   71.5295   -3.0576 P.3     1  UNL1        0.2189
      2 O          23.5425   71.5333   -3.7074 O.co2   1  UNL1       -0.4371
      3 O          21.9784   70.9618   -1.6711 O.2     1  UNL1       -0.5170
      4 O          21.1493   70.7937   -4.1736 O.3     1  UNL1       -0.3112
      5 C          20.2075   69.8252   -3.7459 C.3     1  UNL1        0.1811
      6 O          18.5881   71.2623   -4.7882 O.3     1  UNL1       -0.3308
      7 O          16.6126   70.1462   -2.8280 O.3     1  UNL1       -0.3794
      8 O          16.0412   68.7570   -5.1040 O.3     1  UNL1       -0.3779
      9 C          17.6984   69.4944   -3.4849 C.3     1  UNL1        0.1713
     10 C          17.3581   69.2422   -4.9389 C.3     1  UNL1        0.1895
     11 C          18.8462   70.4903   -3.5949 C.3     1  UNL1        0.1764
     12 C          17.5554   70.6182   -5.5519 C.3     1  UNL1        0.2383
     13 H          15.8676   69.5296   -2.7458 H       1  UNL1        0.2105
     14 H          15.9664   67.8796   -4.6975 H       1  UNL1        0.2106
     15 O          15.7862   70.2943   -7.7298 O.2     1  UNL1       -0.2464
     16 O          19.2380   70.3754  -10.7826 O.2     1  UNL1       -0.2670
     17 N          17.9646   70.5518   -6.9265 N.ar    1  UNL1       -0.2551
     18 N          17.5063   70.3351   -9.2481 N.ar    1  UNL1       -0.2743
     19 C          16.9966   70.3866   -7.9444 C.ar    1  UNL1        0.3323
     20 C          19.3126   70.6504   -7.2538 C.ar    1  UNL1        0.0869
     21 C          19.7825   70.5981   -8.5019 C.ar    1  UNL1        0.0795
     22 C          18.8371   70.4272   -9.6239 C.ar    1  UNL1        0.2626
     23 H          16.8504   70.2201   -9.9735 H       1  UNL1        0.1734
     24 O          21.6067   73.0760   -3.1795 O.3     1  UNL1       -0.2703
     25 P          22.2093   74.4157   -2.5049 P.3     1  UNL1        0.2208
     26 O          23.7201   73.9876   -2.1153 O.co2   1  UNL1       -0.4371
     27 O          21.3996   74.9441   -1.3564 O.2     1  UNL1       -0.5170
     28 O          22.3822   75.4490   -3.7327 O.3     1  UNL1       -0.2858
     29 O          23.4020   74.2000   -5.4696 O.3     1  UNL1       -0.3258
     30 O          23.1092   77.8547   -7.3692 O.3     1  UNL1       -0.3794
     31 O          21.3772   75.7039   -8.1579 O.3     1  UNL1       -0.3794
     32 O          23.7793   77.7395   -4.5555 O.3     1  UNL1       -0.3775
     33 C          22.6923   76.8055   -6.4913 C.3     1  UNL1        0.1715
     34 C          22.5151   75.5304   -7.3181 C.3     1  UNL1        0.1694
     35 C          23.7562   76.6040   -5.4138 C.3     1  UNL1        0.1967
     36 C          22.3296   74.3048   -6.4133 C.3     1  UNL1        0.1761
     37 C          23.5048   75.3315   -4.6029 C.3     1  UNL1        0.2704
     38 H          22.4379   77.9880   -8.0555 H       1  UNL1        0.2105
     39 H          21.5069   76.4813   -8.7237 H       1  UNL1        0.2105
     40 H          23.9395   78.5384   -5.0807 H       1  UNL1        0.2106
     41 O          23.0224   73.2034   -8.4173 O.3     1  UNL1       -0.3794
     42 C          22.3087   73.0029   -7.2112 C.3     1  UNL1        0.1693
     43 H          23.0177   72.3829   -8.9353 H       1  UNL1        0.2105
@<TRIPOS>UNITY_ATOM_ATTR
2 1
charge -1
26 1
charge -1
@<TRIPOS>BOND
     1    25    28    1
     2    25    24    1
     3    25    26    1
     4    25    27    2
     5     1     4    1
     6     1    24    1
     7     1     2    1
     8     1     3    2
     9     6    11    1
    10     6    12    1
    11    29    36    1
    12    29    37    1
    13     7     9    1
    14     7    13    1
    15     8    10    1
    16     8    14    1
    17    28    37    1
    18     4     5    1
    19    30    33    1
    20    30    38    1
    21    31    34    1
    22    31    39    1
    23    32    35    1
    24    32    40    1
    25    41    42    1
    26    41    43    1
    27    15    19    2
    28    16    22    2
    29    17    12    1
    30    17    19   ar
    31    17    20   ar
    32    18    19   ar
    33    18    22   ar
    34    18    23    1
    35     9    10    1
    36     9    11    1
    37    10    12    1
    38    11     5    1
    39    33    34    1
    40    33    35    1
    41    34    36    1
    42    35    37    1
    43    36    42    1
    44    20    21   ar
    45    21    22   ar
@<TRIPOS>MOLECULE
*****
 43 45 0 0 0
SMALL
GASTEIGER

@<TRIPOS>ATOM
      1 P          23.2114   71.7252   -2.2506 P.3     1  UNL1        0.2189
      2 O          23.8183   73.0892   -1.6272 O.co2   1  UNL1       -0.4371
      3 O          24.1564   70.9515   -3.1224 O.2     1  UNL1       -0.5170
      4 O          21.8340   72.1991   -2.9549 O.3     1  UNL1       -0.3112
      5 C          21.4664   71.6063   -4.1883 C.3     1  UNL1        0.1811
      6 O          20.0374   72.0492   -6.0685 O.3     1  UNL1       -0.3308
      7 O          20.0543   74.9096   -5.1693 O.3     1  UNL1       -0.3794
      8 O          17.6509   74.0107   -4.2464 O.3     1  UNL1       -0.3779
      9 C          20.0604   73.7175   -4.3857 C.3     1  UNL1        0.1713
     10 C          18.6921   73.0686   -4.4049 C.3     1  UNL1        0.1895
     11 C          20.9129   72.6836   -5.1108 C.3     1  UNL1        0.1764
     12 C          18.6772   72.4051   -5.7715 C.3     1  UNL1        0.2383
     13 H          19.5163   75.5849   -4.7261 H       1  UNL1        0.2105
     14 H          17.7031   74.4049   -3.3618 H       1  UNL1        0.2106
     15 O          16.8983   71.7282   -7.8583 O.2     1  UNL1       -0.2464
     16 O          15.6262   67.8290   -5.7560 O.2     1  UNL1       -0.2670
     17 N          17.8690   71.2187   -5.7955 N.ar    1  UNL1       -0.2551
     18 N          16.2665   69.7872   -6.8099 N.ar    1  UNL1       -0.2743
     19 C          17.0076   70.9730   -6.8901 C.ar    1  UNL1        0.3323
     20 C          17.9354   70.3135   -4.7419 C.ar    1  UNL1        0.0869
     21 C          17.2211   69.1878   -4.6800 C.ar    1  UNL1        0.0795
     22 C          16.2967   68.8564   -5.7835 C.ar    1  UNL1        0.2626
     23 H          15.6593   69.5953   -7.5611 H       1  UNL1        0.1734
     24 O          22.6951   70.9264   -0.9436 O.3     1  UNL1       -0.2703
     25 P          21.3610   71.1052   -0.0485 P.3     1  UNL1        0.2208
     26 O          21.5775   70.0466    1.1556 O.co2   1  UNL1       -0.4371
     27 O          20.0801   70.9234   -0.8101 O.2     1  UNL1       -0.5170
     28 O          21.5264   72.5525    0.6465 O.3     1  UNL1       -0.2858
     29 O          22.9618   71.9099    2.4194 O.3     1  UNL1       -0.3258
     30 O          23.3160   76.0117    2.7373 O.3     1  UNL1       -0.3794
     31 O          25.5083   74.4755    1.6971 O.3     1  UNL1       -0.3794
     32 O          20.7534   74.8292    2.0936 O.3     1  UNL1       -0.3775
     33 C          23.1608   74.7666    2.0510 C.3     1  UNL1        0.1715
     34 C          24.3831   73.8971    2.3525 C.3     1  UNL1        0.1694
     35 C          21.8830   74.0848    2.5366 C.3     1  UNL1        0.1967
     36 C          24.1688   72.4550    1.8737 C.3     1  UNL1        0.1761
     37 C          21.7918   72.6394    2.0441 C.3     1  UNL1        0.2704
     38 H          24.1253   76.4499    2.4332 H       1  UNL1        0.2105
     39 H          25.6323   75.3861    2.0080 H       1  UNL1        0.2105
     40 H          20.8228   75.7422    2.4121 H       1  UNL1        0.2106
     41 O          25.5592   70.6114    1.2600 O.3     1  UNL1       -0.3794
     42 C          25.3085   71.5342    2.3039 C.3     1  UNL1        0.1693
     43 H          26.2826   70.0190    1.5197 H       1  UNL1        0.2105
@<TRIPOS>UNITY_ATOM_ATTR
2 1
charge -1
26 1
charge -1
@<TRIPOS>BOND
     1    25    28    1
     2    25    24    1
     3    25    26    1
     4    25    27    2
     5     1     4    1
     6     1    24    1
     7     1     2    1
     8     1     3    2
     9     6    11    1
    10     6    12    1
    11    29    36    1
    12    29    37    1
    13     7     9    1
    14     7    13    1
    15     8    10    1
    16     8    14    1
    17    28    37    1
    18     4     5    1
    19    30    33    1
    20    30    38    1
    21    31    34    1
    22    31    39    1
    23    32    35    1
    24    32    40    1
    25    41    42    1
    26    41    43    1
    27    15    19    2
    28    16    22    2
    29    17    12    1
    30    17    19   ar
    31    17    20   ar
    32    18    19   ar
    33    18    22   ar
    34    18    23    1
    35     9    10    1
    36     9    11    1
    37    10    12    1
    38    11     5    1
    39    33    34    1
    40    33    35    1
    41    34    36    1
    42    35    37    1
    43    36    42    1
    44    20    21   ar
    45    21    22   ar
@<TRIPOS>MOLECULE
*****
 43 45 0 0 0
SMALL
GASTEIGER

@<TRIPOS>ATOM
      1 P          23.0857   71.9216   -2.4125 P.3     1  UNL1        0.2189
      2 O          23.6061   73.3000   -1.7441 O.co2   1  UNL1       -0.4371
      3 O          24.0959   71.2084   -3.2623 O.2     1  UNL1       -0.5170
      4 O          21.7139   72.3454   -3.1584 O.3     1  UNL1       -0.3112
      5 C          21.2139   71.5044   -4.1834 C.3     1  UNL1        0.1811
      6 O          21.2608   71.1351   -6.5572 O.3     1  UNL1       -0.3308
      7 O          23.0107   73.5651   -6.7120 O.3     1  UNL1       -0.3794
      8 O          20.5752   74.5378   -7.4595 O.3     1  UNL1       -0.3779
      9 C          21.9083   73.3008   -5.8458 C.3     1  UNL1        0.1713
     10 C          20.6035   73.4115   -6.6066 C.3     1  UNL1        0.1895
     11 C          21.9405   71.8213   -5.4833 C.3     1  UNL1        0.1764
     12 C          20.5719   72.0987   -7.3706 C.3     1  UNL1        0.2383
     13 H          23.0113   74.5042   -6.9569 H       1  UNL1        0.2105
     14 H          20.5969   75.3478   -6.9265 H       1  UNL1        0.2106
     15 O          19.7092   70.8780   -9.7672 O.2     1  UNL1       -0.2464
     16 O          15.4148   70.3646   -8.1747 O.2     1  UNL1       -0.2670
     17 N          19.2338   71.6360   -7.6093 N.ar    1  UNL1       -0.2551
     18 N          17.5716   70.6232   -8.9722 N.ar    1  UNL1       -0.2743
     19 C          18.9038   71.0378   -8.8477 C.ar    1  UNL1        0.3323
     20 C          18.2653   71.7770   -6.6214 C.ar    1  UNL1        0.0869
     21 C          16.9990   71.3775   -6.7563 C.ar    1  UNL1        0.0795
     22 C          16.5719   70.7425   -8.0199 C.ar    1  UNL1        0.2626
     23 H          17.3186   70.2040   -9.8267 H       1  UNL1        0.1734
     24 O          22.5605   71.0758   -1.1391 O.3     1  UNL1       -0.2703
     25 P          21.5177   71.4612    0.0344 P.3     1  UNL1        0.2208
     26 O          21.3572   70.0775    0.8574 O.co2   1  UNL1       -0.4371
     27 O          20.2241   72.0422   -0.4584 O.2     1  UNL1       -0.5170
     28 O          22.3523   72.4280    1.0212 O.3     1  UNL1       -0.2858
     29 O          23.8819   71.5555    2.6073 O.3     1  UNL1       -0.3258
     30 O          23.0479   75.1729    4.4156 O.3     1  UNL1       -0.3794
     31 O          25.6037   74.7659    3.1706 O.3     1  UNL1       -0.3794
     32 O          20.9391   73.7050    3.0821 O.3     1  UNL1       -0.3775
     33 C          23.2650   74.2858    3.3150 C.3     1  UNL1        0.1715
     34 C          24.6792   73.7137    3.4320 C.3     1  UNL1        0.1694
     35 C          22.2266   73.1666    3.3635 C.3     1  UNL1        0.1967
     36 C          24.8924   72.5576    2.4454 C.3     1  UNL1        0.1761
     37 C          22.5589   72.0446    2.3783 C.3     1  UNL1        0.2704
     38 H          23.7037   75.8861    4.3903 H       1  UNL1        0.2105
     39 H          25.4581   75.4897    3.8000 H       1  UNL1        0.2105
     40 H          20.7404   74.4140    3.7127 H       1  UNL1        0.2106
     41 O          26.2551   70.6733    1.8965 O.3     1  UNL1       -0.3794
     42 C          26.2400   71.8699    2.6530 C.3     1  UNL1        0.1693
     43 H          27.1070   70.2250    2.0186 H       1  UNL1        0.2105
@<TRIPOS>UNITY_ATOM_ATTR
2 1
charge -1
26 1
charge -1
@<TRIPOS>BOND
     1    25    28    1
     2    25    24    1
     3    25    26    1
     4    25    27    2
     5     1     4    1
     6     1    24    1
     7     1     2    1
     8     1     3    2
     9     6    11    1
    10     6    12    1
    11    29    36    1
    12    29    37    1
    13     7     9    1
    14     7    13    1
    15     8    10    1
    16     8    14    1
    17    28    37    1
    18     4     5    1
    19    30    33    1
    20    30    38    1
    21    31    34    1
    22    31    39    1
    23    32    35    1
    24    32    40    1
    25    41    42    1
    26    41    43    1
    27    15    19    2
    28    16    22    2
    29    17    12    1
    30    17    19   ar
    31    17    20   ar
    32    18    19   ar
    33    18    22   ar
    34    18    23    1
    35     9    10    1
    36     9    11    1
    37    10    12    1
    38    11     5    1
    39    33    34    1
    40    33    35    1
    41    34    36    1
    42    35    37    1
    43    36    42    1
    44    20    21   ar
    45    21    22   ar
@<TRIPOS>MOLECULE
*****
 43 45 0 0 0
SMALL
GASTEIGER

@<TRIPOS>ATOM
      1 P          20.4366   71.2072   -1.2857 P.3     1  UNL1        0.2189
      2 O          20.7701   70.4565    0.1080 O.co2   1  UNL1       -0.4371
      3 O          19.9919   72.6336   -1.1467 O.2     1  UNL1       -0.5170
      4 O          19.3924   70.2143   -2.0216 O.3     1  UNL1       -0.3112
      5 C          19.1162   70.4214   -3.3959 C.3     1  UNL1        0.1811
      6 O          17.4591   71.4096   -4.8281 O.3     1  UNL1       -0.3308
      7 O          15.4367   69.8695   -3.2380 O.3     1  UNL1       -0.3794
      8 O          15.6976   68.3569   -5.4919 O.3     1  UNL1       -0.3779
      9 C          16.7581   69.4936   -3.6226 C.3     1  UNL1        0.1713
     10 C          16.7987   69.1494   -5.0969 C.3     1  UNL1        0.1895
     11 C          17.6361   70.7373   -3.5620 C.3     1  UNL1        0.1764
     12 C          16.7903   70.5249   -5.7419 C.3     1  UNL1        0.2383
     13 H          14.8575   69.0913   -3.2686 H       1  UNL1        0.2105
     14 H          15.7480   67.4923   -5.0552 H       1  UNL1        0.2106
     15 O          15.5172   70.6128   -8.2617 O.2     1  UNL1       -0.2464
     16 O          19.5449   70.5934  -10.5018 O.2     1  UNL1       -0.2670
     17 N          17.4820   70.5441   -6.9999 N.ar    1  UNL1       -0.2551
     18 N          17.5237   70.6032   -9.3750 N.ar    1  UNL1       -0.2743
     19 C          16.7485   70.5875   -8.2085 C.ar    1  UNL1        0.3323
     20 C          18.8722   70.5203   -7.0269 C.ar    1  UNL1        0.0869
     21 C          19.5965   70.5344   -8.1478 C.ar    1  UNL1        0.0795
     22 C          18.9072   70.5795   -9.4535 C.ar    1  UNL1        0.2626
     23 H          17.0343   70.6330  -10.2291 H       1  UNL1        0.1734
     24 O          21.7935   71.0059   -2.1408 O.3     1  UNL1       -0.2703
     25 P          23.2744   71.6231   -1.9428 P.3     1  UNL1        0.2208
     26 O          24.1744   70.7683   -2.9806 O.co2   1  UNL1       -0.4371
     27 O          23.7685   71.5947   -0.5255 O.2     1  UNL1       -0.5170
     28 O          23.1925   73.0980   -2.5932 O.3     1  UNL1       -0.2858
     29 O          23.8337   72.8612   -4.8624 O.3     1  UNL1       -0.3258
     30 O          23.2329   76.9455   -4.7692 O.3     1  UNL1       -0.3794
     31 O          21.3467   75.2656   -6.1361 O.3     1  UNL1       -0.3794
     32 O          24.4377   75.6111   -2.5005 O.3     1  UNL1       -0.3775
     33 C          22.9791   75.5828   -4.4170 C.3     1  UNL1        0.1715
     34 C          22.6238   74.8160   -5.6923 C.3     1  UNL1        0.1694
     35 C          24.2296   74.9942   -3.7664 C.3     1  UNL1        0.1967
     36 C          22.5994   73.3024   -5.4400 C.3     1  UNL1        0.1761
     37 C          24.1216   73.4768   -3.6054 C.3     1  UNL1        0.2704
     38 H          22.4426   77.3253   -5.1824 H       1  UNL1        0.2105
     39 H          21.3755   76.2228   -6.2913 H       1  UNL1        0.2105
     40 H          24.5047   76.5714   -2.6160 H       1  UNL1        0.2106
     41 O          23.0818   73.1804   -7.7769 O.3     1  UNL1       -0.3794
     42 C          22.4027   72.5105   -6.7308 C.3     1  UNL1        0.1693
     43 H          22.9656   72.6875   -8.6047 H       1  UNL1        0.2105
@<TRIPOS>UNITY_ATOM_ATTR
2 1
charge -1
26 1
charge -1
@<TRIPOS>BOND
     1    25    28    1
     2    25    24    1
     3    25    26    1
     4    25    27    2
     5     1     4    1
     6     1    24    1
     7     1     2    1
     8     1     3    2
     9     6    11    1
    10     6    12    1
    11    29    36    1
    12    29    37    1
    13     7     9    1
    14     7    13    1
    15     8    10    1
    16     8    14    1
    17    28    37    1
    18     4     5    1
    19    30    33    1
    20    30    38    1
    21    31    34    1
    22    31    39    1
    23    32    35    1
    24    32    40    1
    25    41    42    1
    26    41    43    1
    27    15    19    2
    28    16    22    2
    29    17    12    1
    30    17    19   ar
    31    17    20   ar
    32    18    19   ar
    33    18    22   ar
    34    18    23    1
    35     9    10    1
    36     9    11    1
    37    10    12    1
    38    11     5    1
    39    33    34    1
    40    33    35    1
    41    34    36    1
    42    35    37    1
    43    36    42    1
    44    20    21   ar
    45    21    22   ar
@<TRIPOS>MOLECULE
*****
 43 45 0 0 0
SMALL
GASTEIGER

@<TRIPOS>ATOM
      1 P          21.8170   72.6701   -4.9145 P.3     1  UNL1        0.2189
      2 O          21.1268   74.1066   -5.1930 O.co2   1  UNL1       -0.4371
      3 O          23.0100   72.3635   -5.7712 O.2     1  UNL1       -0.5170
      4 O          20.5887   71.6222   -5.0193 O.3     1  UNL1       -0.3112
      5 C          20.0018   71.1463   -3.8206 C.3     1  UNL1        0.1811
      6 O          18.1763   72.0231   -5.1139 O.3     1  UNL1       -0.3308
      7 O          16.3777   70.8738   -3.0080 O.3     1  UNL1       -0.3794
      8 O          16.1997   69.0322   -5.0114 O.3     1  UNL1       -0.3779
      9 C          17.6006   70.3569   -3.5302 C.3     1  UNL1        0.1713
     10 C          17.3839   69.7979   -4.9209 C.3     1  UNL1        0.1895
     11 C          18.5295   71.5338   -3.8016 C.3     1  UNL1        0.1764
     12 C          17.3292   71.0611   -5.7633 C.3     1  UNL1        0.2383
     13 H          15.7683   70.1405   -2.8265 H       1  UNL1        0.2105
     14 H          16.2838   68.2398   -4.4584 H       1  UNL1        0.2106
     15 O          15.7034   70.2480   -7.9252 O.2     1  UNL1       -0.2464
     16 O          19.2641   70.2748  -10.8512 O.2     1  UNL1       -0.2670
     17 N          17.8052   70.8483   -7.1010 N.ar    1  UNL1       -0.2551
     18 N          17.4776   70.2622   -9.3804 N.ar    1  UNL1       -0.2743
     19 C          16.9065   70.4396   -8.1138 C.ar    1  UNL1        0.3323
     20 C          19.1494   71.0453   -7.3978 C.ar    1  UNL1        0.0869
     21 C          19.6786   70.8706   -8.6105 C.ar    1  UNL1        0.0795
     22 C          18.8077   70.4440   -9.7248 C.ar    1  UNL1        0.2626
     23 H          16.8707   69.9772  -10.1016 H       1  UNL1        0.1734
     24 O          22.1219   72.7149   -3.3277 O.3     1  UNL1       -0.2703
     25 P          23.4520   72.3354   -2.4912 P.3     1  UNL1        0.2208
     26 O          24.3939   73.6370   -2.6812 O.co2   1  UNL1       -0.4371
     27 O          24.0918   71.0422   -2.9062 O.2     1  UNL1       -0.5170
     28 O          22.9912   72.3878   -0.9452 O.3     1  UNL1       -0.2858
     29 O          23.8437   70.7752    0.5678 O.3     1  UNL1       -0.3258
     30 O          20.5052   71.9669    2.6855 O.3     1  UNL1       -0.3794
     31 O          23.1135   72.7672    3.5823 O.3     1  UNL1       -0.3794
     32 O          20.3730   71.7120   -0.1949 O.3     1  UNL1       -0.3775
     33 C          21.6273   72.1409    1.8160 C.3     1  UNL1        0.1715
     34 C          22.8947   71.7698    2.5886 C.3     1  UNL1        0.1694
     35 C          21.4578   71.2380    0.5956 C.3     1  UNL1        0.1967
     36 C          24.1064   71.6739    1.6518 C.3     1  UNL1        0.1761
     37 C          22.7363   71.1747   -0.2420 C.3     1  UNL1        0.2704
     38 H          20.6064   72.5378    3.4623 H       1  UNL1        0.2105
     39 H          22.3409   72.8179    4.1669 H       1  UNL1        0.2105
     40 H          19.5696   71.7472    0.3466 H       1  UNL1        0.2106
     41 O          25.1087   69.8131    2.7661 O.3     1  UNL1       -0.3794
     42 C          25.3472   71.1522    2.3731 C.3     1  UNL1        0.1693
     43 H          25.8902   69.4678    3.2263 H       1  UNL1        0.2105
@<TRIPOS>UNITY_ATOM_ATTR
2 1
charge -1
26 1
charge -1
@<TRIPOS>BOND
     1    25    28    1
     2    25    24    1
     3    25    26    1
     4    25    27    2
     5     1     4    1
     6     1    24    1
     7     1     2    1
     8     1     3    2
     9     6    11    1
    10     6    12    1
    11    29    36    1
    12    29    37    1
    13     7     9    1
    14     7    13    1
    15     8    10    1
    16     8    14    1
    17    28    37    1
    18     4     5    1
    19    30    33    1
    20    30    38    1
    21    31    34    1
    22    31    39    1
    23    32    35    1
    24    32    40    1
    25    41    42    1
    26    41    43    1
    27    15    19    2
    28    16    22    2
    29    17    12    1
    30    17    19   ar
    31    17    20   ar
    32    18    19   ar
    33    18    22   ar
    34    18    23    1
    35     9    10    1
    36     9    11    1
    37    10    12    1
    38    11     5    1
    39    33    34    1
    40    33    35    1
    41    34    36    1
    42    35    37    1
    43    36    42    1
    44    20    21   ar
    45    21    22   ar
@<TRIPOS>MOLECULE
*****
 43 45 0 0 0
SMALL
GASTEIGER

@<TRIPOS>ATOM
      1 P          20.3415   71.2020   -1.3429 P.3     1  UNL1        0.2189
      2 O          20.8287   70.5230    0.0424 O.co2   1  UNL1       -0.4371
      3 O          19.7267   72.5632   -1.1996 O.2     1  UNL1       -0.5170
      4 O          19.3996   70.0732   -2.0186 O.3     1  UNL1       -0.3112
      5 C          19.0948   70.1841   -3.3979 C.3     1  UNL1        0.1811
      6 O          17.4784   71.2930   -4.7878 O.3     1  UNL1       -0.3308
      7 O          15.3976   69.7548   -3.2728 O.3     1  UNL1       -0.3794
      8 O          15.6140   68.3367   -5.5921 O.3     1  UNL1       -0.3779
      9 C          16.7065   69.3506   -3.6712 C.3     1  UNL1        0.1713
     10 C          16.7406   69.0717   -5.1594 C.3     1  UNL1        0.1895
     11 C          17.6272   70.5588   -3.5528 C.3     1  UNL1        0.1764
     12 C          16.7826   70.4743   -5.7419 C.3     1  UNL1        0.2383
     13 H          14.7918   68.9996   -3.3398 H       1  UNL1        0.2105
     14 H          15.6326   67.4522   -5.1946 H       1  UNL1        0.2106
     15 O          15.5189   70.5957   -8.2650 O.2     1  UNL1       -0.2464
     16 O          19.5557   70.6664  -10.4876 O.2     1  UNL1       -0.2670
     17 N          17.4791   70.5257   -6.9963 N.ar    1  UNL1       -0.2551
     18 N          17.5299   70.6310   -9.3696 N.ar    1  UNL1       -0.2743
     19 C          16.7502   70.5838   -8.2070 C.ar    1  UNL1        0.3323
     20 C          18.8696   70.5186   -7.0177 C.ar    1  UNL1        0.0869
     21 C          19.5983   70.5628   -8.1349 C.ar    1  UNL1        0.0795
     22 C          18.9139   70.6249   -9.4425 C.ar    1  UNL1        0.2626
     23 H          17.0437   70.6715  -10.2250 H       1  UNL1        0.1734
     24 O          21.6737   71.1584   -2.2573 O.3     1  UNL1       -0.2703
     25 P          22.8800   72.2210   -2.4270 P.3     1  UNL1        0.2208
     26 O          22.1408   73.5286   -3.0281 O.co2   1  UNL1       -0.4371
     27 O          24.0274   71.7221   -3.2567 O.2     1  UNL1       -0.5170
     28 O          23.2758   72.6342   -0.9179 O.3     1  UNL1       -0.2858
     29 O          22.0072   73.7307    0.7570 O.3     1  UNL1       -0.3258
     30 O          25.7052   75.3951    1.5348 O.3     1  UNL1       -0.3794
     31 O          24.6149   73.4528    3.3477 O.3     1  UNL1       -0.3794
     32 O          24.8830   74.9174   -1.1993 O.3     1  UNL1       -0.3775
     33 C          24.7981   74.3613    1.1427 C.3     1  UNL1        0.1715
     34 C          23.8574   74.0784    2.3156 C.3     1  UNL1        0.1694
     35 C          24.0088   74.8268   -0.0794 C.3     1  UNL1        0.1967
     36 C          22.6923   73.1765    1.8863 C.3     1  UNL1        0.1761
     37 C          22.8435   73.8860   -0.3912 C.3     1  UNL1        0.2704
     38 H          26.2099   75.1057    2.3101 H       1  UNL1        0.2105
     39 H          25.3476   74.0323    3.6093 H       1  UNL1        0.2105
     40 H          25.6162   75.5159   -0.9894 H       1  UNL1        0.2106
     41 O          22.1779   72.1159    3.9646 O.3     1  UNL1       -0.3794
     42 C          21.6583   73.0100    2.9977 C.3     1  UNL1        0.1693
     43 H          21.5305   72.0005    4.6783 H       1  UNL1        0.2105
@<TRIPOS>UNITY_ATOM_ATTR
2 1
charge -1
26 1
charge -1
@<TRIPOS>BOND
     1    25    28    1
     2    25    24    1
     3    25    26    1
     4    25    27    2
     5     1     4    1
     6     1    24    1
     7     1     2    1
     8     1     3    2
     9     6    11    1
    10     6    12    1
    11    29    36    1
    12    29    37    1
    13     7     9    1
    14     7    13    1
    15     8    10    1
    16     8    14    1
    17    28    37    1
    18     4     5    1
    19    30    33    1
    20    30    38    1
    21    31    34    1
    22    31    39    1
    23    32    35    1
    24    32    40    1
    25    41    42    1
    26    41    43    1
    27    15    19    2
    28    16    22    2
    29    17    12    1
    30    17    19   ar
    31    17    20   ar
    32    18    19   ar
    33    18    22   ar
    34    18    23    1
    35     9    10    1
    36     9    11    1
    37    10    12    1
    38    11     5    1
    39    33    34    1
    40    33    35    1
    41    34    36    1
    42    35    37    1
    43    36    42    1
    44    20    21   ar
    45    21    22   ar
@<TRIPOS>MOLECULE
*****
 43 45 0 0 0
SMALL
GASTEIGER

@<TRIPOS>ATOM
      1 P          23.4767   72.0802   -3.2762 P.3     1  UNL1        0.2189
      2 O          24.1618   72.9207   -4.4769 O.co2   1  UNL1       -0.4371
      3 O          24.1492   70.7794   -2.9491 O.2     1  UNL1       -0.5170
      4 O          21.9219   71.9772   -3.7120 O.3     1  UNL1       -0.3112
      5 C          21.4679   72.7759   -4.7909 C.3     1  UNL1        0.1811
      6 O          20.7143   70.7103   -5.7601 O.3     1  UNL1       -0.3308
      7 O          21.1503   72.0177   -8.4231 O.3     1  UNL1       -0.3794
      8 O          18.4505   72.2196   -8.0967 O.3     1  UNL1       -0.3779
      9 C          20.6812   72.5897   -7.2032 C.3     1  UNL1        0.1713
     10 C          19.2538   72.1599   -6.9358 C.3     1  UNL1        0.1895
     11 C          21.4330   71.9280   -6.0550 C.3     1  UNL1        0.1764
     12 C          19.4420   70.7407   -6.4274 C.3     1  UNL1        0.2383
     13 H          20.6848   72.4248   -9.1710 H       1  UNL1        0.2105
     14 H          18.3606   73.1426   -8.3808 H       1  UNL1        0.2106
     15 O          16.9110   69.7318   -7.1716 O.2     1  UNL1       -0.2464
     16 O          15.5951   69.2813   -2.7777 O.2     1  UNL1       -0.2670
     17 N          18.4188   70.3515   -5.4984 N.ar    1  UNL1       -0.2551
     18 N          16.2579   69.5081   -4.9832 N.ar    1  UNL1       -0.2743
     19 C          17.1823   69.8579   -5.9757 C.ar    1  UNL1        0.3323
     20 C          18.6465   70.4605   -4.1309 C.ar    1  UNL1        0.0869
     21 C          17.7541   70.1239   -3.1973 C.ar    1  UNL1        0.0795
     22 C          16.4369   69.5995   -3.6119 C.ar    1  UNL1        0.2626
     23 H          15.3892   69.1622   -5.2921 H       1  UNL1        0.1734
     24 O          23.4434   73.1447   -2.0602 O.3     1  UNL1       -0.2703
     25 P          23.1632   72.9439   -0.4809 P.3     1  UNL1        0.2208
     26 O          21.5860   72.5878   -0.4263 O.co2   1  UNL1       -0.4371
     27 O          23.5635   74.1151    0.3688 O.2     1  UNL1       -0.5170
     28 O          23.9066   71.5611   -0.1067 O.3     1  UNL1       -0.2858
     29 O          24.6600   71.8708    2.1188 O.3     1  UNL1       -0.3258
     30 O          20.5886   72.1257    2.7590 O.3     1  UNL1       -0.3794
     31 O          22.1994   74.4985    2.9123 O.3     1  UNL1       -0.3794
     32 O          21.6331   70.2203    0.8464 O.3     1  UNL1       -0.3775
     33 C          21.8075   72.3087    2.0335 C.3     1  UNL1        0.1715
     34 C          22.7406   73.1809    2.8758 C.3     1  UNL1        0.1694
     35 C          22.4405   70.9440    1.7688 C.3     1  UNL1        0.1967
     36 C          24.1587   73.2017    2.2896 C.3     1  UNL1        0.1761
     37 C          23.8673   71.0774    1.2333 C.3     1  UNL1        0.2704
     38 H          20.1814   72.9885    2.9299 H       1  UNL1        0.2105
     39 H          21.3037   74.4713    3.2841 H       1  UNL1        0.2105
     40 H          20.7326   70.1423    1.1970 H       1  UNL1        0.2106
     41 O          26.4528   73.7241    2.7057 O.3     1  UNL1       -0.3794
     42 C          25.1424   73.9358    3.1981 C.3     1  UNL1        0.1693
     43 H          27.0896   74.1858    3.2740 H       1  UNL1        0.2105
@<TRIPOS>UNITY_ATOM_ATTR
2 1
charge -1
26 1
charge -1
@<TRIPOS>BOND
     1    25    28    1
     2    25    24    1
     3    25    26    1
     4    25    27    2
     5     1     4    1
     6     1    24    1
     7     1     2    1
     8     1     3    2
     9     6    11    1
    10     6    12    1
    11    29    36    1
    12    29    37    1
    13     7     9    1
    14     7    13    1
    15     8    10    1
    16     8    14    1
    17    28    37    1
    18     4     5    1
    19    30    33    1
    20    30    38    1
    21    31    34    1
    22    31    39    1
    23    32    35    1
    24    32    40    1
    25    41    42    1
    26    41    43    1
    27    15    19    2
    28    16    22    2
    29    17    12    1
    30    17    19   ar
    31    17    20   ar
    32    18    19   ar
    33    18    22   ar
    34    18    23    1
    35     9    10    1
    36     9    11    1
    37    10    12    1
    38    11     5    1
    39    33    34    1
    40    33    35    1
    41    34    36    1
    42    35    37    1
    43    36    42    1
    44    20    21   ar
    45    21    22   ar
@<TRIPOS>MOLECULE
*****
 43 45 0 0 0
SMALL
GASTEIGER

@<TRIPOS>ATOM
      1 P          21.7900   72.4325   -5.5615 P.3     1  UNL1        0.2189
      2 O          21.1158   73.8595   -5.2058 O.co2   1  UNL1       -0.4371
      3 O          23.0575   72.5120   -6.3605 O.2     1  UNL1       -0.5170
      4 O          20.5847   71.5913   -6.2379 O.3     1  UNL1       -0.3112
      5 C          20.1401   71.9666   -7.5299 C.3     1  UNL1        0.1811
      6 O          18.9125   69.9353   -7.1553 O.3     1  UNL1       -0.3308
      7 O          18.1254   70.0987  -10.0440 O.3     1  UNL1       -0.3794
      8 O          15.9044   71.0355   -8.7688 O.3     1  UNL1       -0.3779
      9 C          18.3105   71.1508   -9.0984 C.3     1  UNL1        0.1713
     10 C          17.1520   71.1918   -8.1239 C.3     1  UNL1        0.1895
     11 C          19.4745   70.7684   -8.1928 C.3     1  UNL1        0.1764
     12 C          17.4796   70.0342   -7.1961 C.3     1  UNL1        0.2383
     13 H          17.3873   70.3204  -10.6338 H       1  UNL1        0.2105
     14 H          15.7418   71.7967   -9.3475 H       1  UNL1        0.2106
     15 O          16.2747   68.0353   -5.6053 O.2     1  UNL1       -0.2464
     16 O          15.6318   70.9560   -2.0985 O.2     1  UNL1       -0.2670
     17 N          16.9885   70.2446   -5.8634 N.ar    1  UNL1       -0.2551
     18 N          15.9557   69.4912   -3.8604 N.ar    1  UNL1       -0.2743
     19 C          16.3995   69.1743   -5.1506 C.ar    1  UNL1        0.3323
     20 C          17.0937   71.5009   -5.2764 C.ar    1  UNL1        0.0869
     21 C          16.6644   71.7870   -4.0455 C.ar    1  UNL1        0.0795
     22 C          16.0367   70.7246   -3.2335 C.ar    1  UNL1        0.2626
     23 H          15.5416   68.7613   -3.3451 H       1  UNL1        0.1734
     24 O          21.9510   71.7352   -4.1121 O.3     1  UNL1       -0.2703
     25 P          23.1153   71.8597   -2.9977 P.3     1  UNL1        0.2208
     26 O          23.6510   73.3743   -3.1884 O.co2   1  UNL1       -0.4371
     27 O          24.1816   70.8080   -3.1017 O.2     1  UNL1       -0.5170
     28 O          22.3306   71.8794   -1.5875 O.3     1  UNL1       -0.2858
     29 O          23.9842   72.5046   -0.0092 O.3     1  UNL1       -0.3258
     30 O          20.7333   72.2161    2.5205 O.3     1  UNL1       -0.3794
     31 O          21.7814   74.8040    1.8480 O.3     1  UNL1       -0.3794
     32 O          21.0571   70.3139    0.3626 O.3     1  UNL1       -0.3775
     33 C          21.4076   72.5076    1.2934 C.3     1  UNL1        0.1715
     34 C          22.4605   73.5830    1.5685 C.3     1  UNL1        0.1694
     35 C          22.0656   71.2322    0.7702 C.3     1  UNL1        0.1967
     36 C          23.4010   73.7572    0.3684 C.3     1  UNL1        0.1761
     37 C          23.0181   71.5234   -0.3909 C.3     1  UNL1        0.2704
     38 H          20.3129   73.0217    2.8578 H       1  UNL1        0.2105
     39 H          21.1905   74.6802    2.6074 H       1  UNL1        0.2105
     40 H          20.4608   70.1376    1.1064 H       1  UNL1        0.2106
     41 O          24.9379   75.3556   -0.5216 O.3     1  UNL1       -0.3794
     42 C          24.5532   74.7103    0.6784 C.3     1  UNL1        0.1693
     43 H          25.6703   75.9656   -0.3395 H       1  UNL1        0.2105
@<TRIPOS>UNITY_ATOM_ATTR
2 1
charge -1
26 1
charge -1
@<TRIPOS>BOND
     1    25    28    1
     2    25    24    1
     3    25    26    1
     4    25    27    2
     5     1     4    1
     6     1    24    1
     7     1     2    1
     8     1     3    2
     9     6    11    1
    10     6    12    1
    11    29    36    1
    12    29    37    1
    13     7     9    1
    14     7    13    1
    15     8    10    1
    16     8    14    1
    17    28    37    1
    18     4     5    1
    19    30    33    1
    20    30    38    1
    21    31    34    1
    22    31    39    1
    23    32    35    1
    24    32    40    1
    25    41    42    1
    26    41    43    1
    27    15    19    2
    28    16    22    2
    29    17    12    1
    30    17    19   ar
    31    17    20   ar
    32    18    19   ar
    33    18    22   ar
    34    18    23    1
    35     9    10    1
    36     9    11    1
    37    10    12    1
    38    11     5    1
    39    33    34    1
    40    33    35    1
    41    34    36    1
    42    35    37    1
    43    36    42    1
    44    20    21   ar
    45    21    22   ar
@<TRIPOS>MOLECULE
*****
 43 45 0 0 0
SMALL
GASTEIGER

@<TRIPOS>ATOM
      1 P          20.7982   71.4744   -3.6387 P.3     1  UNL1        0.2189
      2 O          21.2402   70.0388   -4.2396 O.co2   1  UNL1       -0.4371
      3 O          20.9039   71.5968   -2.1469 O.2     1  UNL1       -0.5170
      4 O          19.3249   71.7191   -4.2611 O.3     1  UNL1       -0.3112
      5 C          18.4345   72.5799   -3.5726 C.3     1  UNL1        0.1811
      6 O          16.6826   72.1896   -5.1702 O.3     1  UNL1       -0.3308
      7 O          15.4588   70.3895   -3.1080 O.3     1  UNL1       -0.3794
      8 O          16.6567   68.6220   -4.8043 O.3     1  UNL1       -0.3779
      9 C          16.8354   70.6075   -3.4125 C.3     1  UNL1        0.1713
     10 C          17.2011   69.9228   -4.7129 C.3     1  UNL1        0.1895
     11 C          17.0101   72.0788   -3.7678 C.3     1  UNL1        0.1764
     12 C          16.6188   70.8740   -5.7445 C.3     1  UNL1        0.2383
     13 H          15.3226   69.4566   -2.8776 H       1  UNL1        0.2105
     14 H          17.0587   68.0548   -4.1278 H       1  UNL1        0.2106
     15 O          15.6458   71.8836   -8.1964 O.2     1  UNL1       -0.2464
     16 O          19.5416   70.7901  -10.4028 O.2     1  UNL1       -0.2670
     17 N          17.3578   70.8662   -6.9754 N.ar    1  UNL1       -0.2551
     18 N          17.5865   71.3385   -9.2930 N.ar    1  UNL1       -0.2743
     19 C          16.7775   71.3969   -8.1510 C.ar    1  UNL1        0.3323
     20 C          18.6434   70.3369   -7.0085 C.ar    1  UNL1        0.0869
     21 C          19.4012   70.2875   -8.1060 C.ar    1  UNL1        0.0795
     22 C          18.8694   70.8211   -9.3766 C.ar    1  UNL1        0.2626
     23 H          17.2029   71.7020  -10.1239 H       1  UNL1        0.1734
     24 O          21.7192   72.5138   -4.4659 O.3     1  UNL1       -0.2703
     25 P          23.0617   73.3099   -4.0452 P.3     1  UNL1        0.2208
     26 O          24.1972   72.1575   -4.0624 O.co2   1  UNL1       -0.4371
     27 O          22.9543   74.0540   -2.7457 O.2     1  UNL1       -0.5170
     28 O          23.4032   74.2377   -5.3210 O.3     1  UNL1       -0.2858
     29 O          22.0211   76.0491   -5.9730 O.3     1  UNL1       -0.3258
     30 O          23.8000   75.2342   -9.6093 O.3     1  UNL1       -0.3794
     31 O          24.5543   77.5957   -8.1593 O.3     1  UNL1       -0.3794
     32 O          23.0583   73.0619   -7.8456 O.3     1  UNL1       -0.3775
     33 C          23.7389   75.3473   -8.1849 C.3     1  UNL1        0.1715
     34 C          23.4176   76.8010   -7.8326 C.3     1  UNL1        0.1694
     35 C          22.6522   74.4131   -7.6561 C.3     1  UNL1        0.1967
     36 C          23.0734   76.9473   -6.3442 C.3     1  UNL1        0.1761
     37 C          22.3523   74.6744   -6.1790 C.3     1  UNL1        0.2704
     38 H          24.4885   75.8245   -9.9514 H       1  UNL1        0.2105
     39 H          24.7613   77.4940   -9.1017 H       1  UNL1        0.2105
     40 H          23.2448   72.9091   -8.7846 H       1  UNL1        0.2106
     41 O          21.2712   78.5105   -6.4752 O.3     1  UNL1       -0.3794
     42 C          22.5971   78.3576   -6.0032 C.3     1  UNL1        0.1693
     43 H          20.9548   79.4035   -6.2649 H       1  UNL1        0.2105
@<TRIPOS>UNITY_ATOM_ATTR
2 1
charge -1
26 1
charge -1
@<TRIPOS>BOND
     1    25    28    1
     2    25    24    1
     3    25    26    1
     4    25    27    2
     5     1     4    1
     6     1    24    1
     7     1     2    1
     8     1     3    2
     9     6    11    1
    10     6    12    1
    11    29    36    1
    12    29    37    1
    13     7     9    1
    14     7    13    1
    15     8    10    1
    16     8    14    1
    17    28    37    1
    18     4     5    1
    19    30    33    1
    20    30    38    1
    21    31    34    1
    22    31    39    1
    23    32    35    1
    24    32    40    1
    25    41    42    1
    26    41    43    1
    27    15    19    2
    28    16    22    2
    29    17    12    1
    30    17    19   ar
    31    17    20   ar
    32    18    19   ar
    33    18    22   ar
    34    18    23    1
    35     9    10    1
    36     9    11    1
    37    10    12    1
    38    11     5    1
    39    33    34    1
    40    33    35    1
    41    34    36    1
    42    35    37    1
    43    36    42    1
    44    20    21   ar
    45    21    22   ar
@<TRIPOS>MOLECULE
*****
 43 45 0 0 0
SMALL
GASTEIGER

@<TRIPOS>ATOM
      1 P          22.7469   72.0384   -3.5816 P.3     1  UNL1        0.2189
      2 O          22.3652   70.5147   -3.1945 O.co2   1  UNL1       -0.4371
      3 O          24.1665   72.2439   -4.0219 O.2     1  UNL1       -0.5170
      4 O          22.2805   72.8956   -2.2910 O.3     1  UNL1       -0.3112
      5 C          23.0761   72.8412   -1.1198 C.3     1  UNL1        0.1811
      6 O          24.1252   71.1221    0.1909 O.3     1  UNL1       -0.3308
      7 O          21.3525   70.1673    0.8161 O.3     1  UNL1       -0.3794
      8 O          22.0300   71.5430    3.0711 O.3     1  UNL1       -0.3779
      9 C          21.8311   71.5007    0.6483 C.3     1  UNL1        0.1713
     10 C          22.6414   71.9244    1.8555 C.3     1  UNL1        0.1895
     11 C          22.8843   71.4862   -0.4525 C.3     1  UNL1        0.1764
     12 C          23.9609   71.2107    1.6156 C.3     1  UNL1        0.2383
     13 H          20.6783   70.1514    1.5140 H       1  UNL1        0.2105
     14 H          21.1946   72.0240    3.1778 H       1  UNL1        0.2106
     15 O          23.9643   73.9763    2.1895 O.2     1  UNL1       -0.2464
     16 O          28.3017   73.8352    3.7413 O.2     1  UNL1       -0.2670
     17 N          25.0775   71.9226    2.1705 N.ar    1  UNL1       -0.2551
     18 N          26.1239   73.9037    2.9619 N.ar    1  UNL1       -0.2743
     19 C          24.9763   73.3111    2.4199 C.ar    1  UNL1        0.3323
     20 C          26.2562   71.2446    2.4616 C.ar    1  UNL1        0.0869
     21 C          27.3421   71.8246    2.9770 C.ar    1  UNL1        0.0795
     22 C          27.3194   73.2727    3.2675 C.ar    1  UNL1        0.2626
     23 H          26.0768   74.8704    3.1437 H       1  UNL1        0.1734
     24 O          21.6361   72.4204   -4.6922 O.3     1  UNL1       -0.2703
     25 P          20.0408   72.6468   -4.5638 P.3     1  UNL1        0.2208
     26 O          19.9019   74.2550   -4.4538 O.co2   1  UNL1       -0.4371
     27 O          19.4009   71.8913   -3.4352 O.2     1  UNL1       -0.5170
     28 O          19.4581   72.2864   -6.0252 O.3     1  UNL1       -0.2858
     29 O          18.7251   70.0380   -6.1796 O.3     1  UNL1       -0.3258
     30 O          18.5787   71.0559  -10.1788 O.3     1  UNL1       -0.3794
     31 O          16.1336   70.7336   -8.7073 O.3     1  UNL1       -0.3794
     32 O          20.7306   72.0457   -8.5147 O.3     1  UNL1       -0.3775
     33 C          18.4608   71.2821   -8.7716 C.3     1  UNL1        0.1715
     34 C          17.4067   70.3212   -8.2181 C.3     1  UNL1        0.1694
     35 C          19.8152   71.0331   -8.1107 C.3     1  UNL1        0.1967
     36 C          17.4133   70.3158   -6.6835 C.3     1  UNL1        0.1761
     37 C          19.7018   70.9988   -6.5855 C.3     1  UNL1        0.2704
     38 H          17.7222   71.2128  -10.6045 H       1  UNL1        0.2105
     39 H          16.1430   70.7331   -9.6774 H       1  UNL1        0.2105
     40 H          20.7938   72.0570   -9.4820 H       1  UNL1        0.2106
     41 O          16.0486   69.6724   -4.8308 O.3     1  UNL1       -0.3794
     42 C          16.4808   69.2505   -6.1112 C.3     1  UNL1        0.1693
     43 H          15.4541   69.0041   -4.4544 H       1  UNL1        0.2105
@<TRIPOS>UNITY_ATOM_ATTR
2 1
charge -1
26 1
charge -1
@<TRIPOS>BOND
     1    25    28    1
     2    25    24    1
     3    25    26    1
     4    25    27    2
     5     1     4    1
     6     1    24    1
     7     1     2    1
     8     1     3    2
     9     6    11    1
    10     6    12    1
    11    29    36    1
    12    29    37    1
    13     7     9    1
    14     7    13    1
    15     8    10    1
    16     8    14    1
    17    28    37    1
    18     4     5    1
    19    30    33    1
    20    30    38    1
    21    31    34    1
    22    31    39    1
    23    32    35    1
    24    32    40    1
    25    41    42    1
    26    41    43    1
    27    15    19    2
    28    16    22    2
    29    17    12    1
    30    17    19   ar
    31    17    20   ar
    32    18    19   ar
    33    18    22   ar
    34    18    23    1
    35     9    10    1
    36     9    11    1
    37    10    12    1
    38    11     5    1
    39    33    34    1
    40    33    35    1
    41    34    36    1
    42    35    37    1
    43    36    42    1
    44    20    21   ar
    45    21    22   ar
@<TRIPOS>MOLECULE
*****
 43 45 0 0 0
SMALL
GASTEIGER

@<TRIPOS>ATOM
      1 P          22.7409   71.6455   -2.8006 P.3     1  UNL1        0.2189
      2 O          24.2518   71.1526   -3.1036 O.co2   1  UNL1       -0.4371
      3 O          22.1782   71.1923   -1.4855 O.2     1  UNL1       -0.5170
      4 O          21.9129   71.1894   -4.1137 O.3     1  UNL1       -0.3112
      5 C          21.5755   72.1735   -5.0758 C.3     1  UNL1        0.1811
      6 O          20.4255   70.3389   -6.1176 O.3     1  UNL1       -0.3308
      7 O          20.6741   71.8807   -8.6772 O.3     1  UNL1       -0.3794
      8 O          18.0949   72.3683   -7.9377 O.3     1  UNL1       -0.3779
      9 C          20.4546   72.3615   -7.3521 C.3     1  UNL1        0.1713
     10 C          19.0310   72.0793   -6.9194 C.3     1  UNL1        0.1895
     11 C          21.2568   71.4866   -6.3967 C.3     1  UNL1        0.1764
     12 C          19.0913   70.5989   -6.5835 C.3     1  UNL1        0.2383
     13 H          20.1721   72.4241   -9.3054 H       1  UNL1        0.2105
     14 H          18.0939   73.3218   -8.1151 H       1  UNL1        0.2106
     15 O          16.4185   69.8186   -7.0583 O.2     1  UNL1       -0.2464
     16 O          15.6035   69.2148   -2.5625 O.2     1  UNL1       -0.2670
     17 N          18.1585   70.2321   -5.5555 N.ar    1  UNL1       -0.2551
     18 N          16.0149   69.5184   -4.8194 N.ar    1  UNL1       -0.2743
     19 C          16.8392   69.8567   -5.9002 C.ar    1  UNL1        0.3323
     20 C          18.5551   70.2465   -4.2227 C.ar    1  UNL1        0.0869
     21 C          17.7565   69.9224   -3.2037 C.ar    1  UNL1        0.0795
     22 C          16.3624   69.5185   -3.4778 C.ar    1  UNL1        0.2626
     23 H          15.0912   69.2540   -5.0354 H       1  UNL1        0.1734
     24 O          22.8405   73.2496   -2.9728 O.3     1  UNL1       -0.2703
     25 P          23.2009   74.4113   -1.9080 P.3     1  UNL1        0.2208
     26 O          22.2781   75.6515   -2.3854 O.co2   1  UNL1       -0.4371
     27 O          24.6654   74.7286   -1.8158 O.2     1  UNL1       -0.5170
     28 O          22.5350   73.9171   -0.5233 O.3     1  UNL1       -0.2858
     29 O          22.3972   74.9506    1.6049 O.3     1  UNL1       -0.3258
     30 O          23.0266   71.0501    2.8052 O.3     1  UNL1       -0.3794
     31 O          20.4316   72.2348    3.1377 O.3     1  UNL1       -0.3794
     32 O          24.4096   72.0874    0.4834 O.3     1  UNL1       -0.3775
     33 C          22.5122   72.0885    1.9671 C.3     1  UNL1        0.1715
     34 C          21.6015   72.9806    2.8129 C.3     1  UNL1        0.1694
     35 C          23.6784   72.8954    1.3993 C.3     1  UNL1        0.1967
     36 C          21.2254   74.2627    2.0580 C.3     1  UNL1        0.1761
     37 C          23.1983   74.1747    0.7116 C.3     1  UNL1        0.2704
     38 H          22.2911   70.5337    3.1685 H       1  UNL1        0.2105
     39 H          20.6830   71.4277    3.6137 H       1  UNL1        0.2105
     40 H          24.7082   71.2809    0.9309 H       1  UNL1        0.2106
     41 O          21.2558   75.5819    4.0498 O.3     1  UNL1       -0.3794
     42 C          20.4481   75.2382    2.9391 C.3     1  UNL1        0.1693
     43 H          20.7741   76.2026    4.6194 H       1  UNL1        0.2105
@<TRIPOS>UNITY_ATOM_ATTR
2 1
charge -1
26 1
charge -1
@<TRIPOS>BOND
     1    25    28    1
     2    25    24    1
     3    25    26    1
     4    25    27    2
     5     1     4    1
     6     1    24    1
     7     1     2    1
     8     1     3    2
     9     6    11    1
    10     6    12    1
    11    29    36    1
    12    29    37    1
    13     7     9    1
    14     7    13    1
    15     8    10    1
    16     8    14    1
    17    28    37    1
    18     4     5    1
    19    30    33    1
    20    30    38    1
    21    31    34    1
    22    31    39    1
    23    32    35    1
    24    32    40    1
    25    41    42    1
    26    41    43    1
    27    15    19    2
    28    16    22    2
    29    17    12    1
    30    17    19   ar
    31    17    20   ar
    32    18    19   ar
    33    18    22   ar
    34    18    23    1
    35     9    10    1
    36     9    11    1
    37    10    12    1
    38    11     5    1
    39    33    34    1
    40    33    35    1
    41    34    36    1
    42    35    37    1
    43    36    42    1
    44    20    21   ar
    45    21    22   ar
@<TRIPOS>MOLECULE
*****
 43 45 0 0 0
SMALL
GASTEIGER

@<TRIPOS>ATOM
      1 P          21.6384   71.3728   -2.0747 P.3     1  UNL1        0.2189
      2 O          22.4624   71.4997   -3.4612 O.co2   1  UNL1       -0.4371
      3 O          22.4805   71.1287   -0.8571 O.2     1  UNL1       -0.5170
      4 O          20.5175   70.2495   -2.3905 O.3     1  UNL1       -0.3112
      5 C          19.9525   70.2045   -3.6892 C.3     1  UNL1        0.1811
      6 O          18.2685   71.4582   -4.8581 O.3     1  UNL1       -0.3308
      7 O          16.2984   70.2138   -2.9711 O.3     1  UNL1       -0.3794
      8 O          15.9821   68.7202   -5.2307 O.3     1  UNL1       -0.3779
      9 C          17.4736   69.6490   -3.5501 C.3     1  UNL1        0.1713
     10 C          17.2382   69.3295   -5.0117 C.3     1  UNL1        0.1895
     11 C          18.5300   70.7440   -3.6301 C.3     1  UNL1        0.1764
     12 C          17.3424   70.7019   -5.6550 C.3     1  UNL1        0.2383
     13 H          15.6094   69.5331   -2.9093 H       1  UNL1        0.2105
     14 H          15.9655   67.8502   -4.8022 H       1  UNL1        0.2106
     15 O          15.7082   70.3291   -7.9284 O.2     1  UNL1       -0.2464
     16 O          19.3262   70.4747  -10.7797 O.2     1  UNL1       -0.2670
     17 N          17.8309   70.6388   -7.0036 N.ar    1  UNL1       -0.2551
     18 N          17.5109   70.4021   -9.3463 N.ar    1  UNL1       -0.2743
     19 C          16.9265   70.4477   -8.0741 C.ar    1  UNL1        0.3323
     20 C          19.1929   70.7663   -7.2540 C.ar    1  UNL1        0.0869
     21 C          19.7344   70.7193   -8.4729 C.ar    1  UNL1        0.0795
     22 C          18.8587   70.5224   -9.6461 C.ar    1  UNL1        0.2626
     23 H          16.9003   70.2694  -10.1073 H       1  UNL1        0.1734
     24 O          20.7799   72.7419   -2.0355 O.3     1  UNL1       -0.2703
     25 P          20.3854   73.7126   -0.8047 P.3     1  UNL1        0.2208
     26 O          18.9844   73.0964   -0.2804 O.co2   1  UNL1       -0.4371
     27 O          20.3254   75.1689   -1.1643 O.2     1  UNL1       -0.5170
     28 O          21.4483   73.3535    0.3557 O.3     1  UNL1       -0.2858
     29 O          21.8078   73.7818    2.6587 O.3     1  UNL1       -0.3258
     30 O          25.4910   74.9345    1.1903 O.3     1  UNL1       -0.3794
     31 O          25.2594   72.4875    2.6758 O.3     1  UNL1       -0.3794
     32 O          23.0876   75.5321   -0.3085 O.3     1  UNL1       -0.3775
     33 C          24.2989   74.1464    1.2453 C.3     1  UNL1        0.1715
     34 C          24.2320   73.4731    2.6175 C.3     1  UNL1        0.1694
     35 C          23.0895   75.0551    1.0328 C.3     1  UNL1        0.1967
     36 C          22.8592   72.8283    2.8519 C.3     1  UNL1        0.1761
     37 C          21.7777   74.3305    1.3396 C.3     1  UNL1        0.2704
     38 H          26.2627   74.3634    1.3240 H       1  UNL1        0.2105
     39 H          26.1210   72.9076    2.5257 H       1  UNL1        0.2105
     40 H          23.9231   75.9891   -0.4902 H       1  UNL1        0.2106
     41 O          21.7446   73.0625    4.9523 O.3     1  UNL1       -0.3794
     42 C          22.7161   72.2884    4.2732 C.3     1  UNL1        0.1693
     43 H          21.6427   72.7300    5.8583 H       1  UNL1        0.2105
@<TRIPOS>UNITY_ATOM_ATTR
2 1
charge -1
26 1
charge -1
@<TRIPOS>BOND
     1    25    28    1
     2    25    24    1
     3    25    26    1
     4    25    27    2
     5     1     4    1
     6     1    24    1
     7     1     2    1
     8     1     3    2
     9     6    11    1
    10     6    12    1
    11    29    36    1
    12    29    37    1
    13     7     9    1
    14     7    13    1
    15     8    10    1
    16     8    14    1
    17    28    37    1
    18     4     5    1
    19    30    33    1
    20    30    38    1
    21    31    34    1
    22    31    39    1
    23    32    35    1
    24    32    40    1
    25    41    42    1
    26    41    43    1
    27    15    19    2
    28    16    22    2
    29    17    12    1
    30    17    19   ar
    31    17    20   ar
    32    18    19   ar
    33    18    22   ar
    34    18    23    1
    35     9    10    1
    36     9    11    1
    37    10    12    1
    38    11     5    1
    39    33    34    1
    40    33    35    1
    41    34    36    1
    42    35    37    1
    43    36    42    1
    44    20    21   ar
    45    21    22   ar
@<TRIPOS>MOLECULE
*****
 43 45 0 0 0
SMALL
GASTEIGER

@<TRIPOS>ATOM
      1 P          21.7522   71.9129   -1.9213 P.3     1  UNL1        0.2189
      2 O          21.5919   73.3486   -2.6495 O.co2   1  UNL1       -0.4371
      3 O          23.0639   71.2244   -2.1594 O.2     1  UNL1       -0.5170
      4 O          20.4350   71.0942   -2.3825 O.3     1  UNL1       -0.3112
      5 C          19.9764   71.2464   -3.7146 C.3     1  UNL1        0.1811
      6 O          18.1190   72.0663   -4.9998 O.3     1  UNL1       -0.3308
      7 O          16.3651   70.8273   -2.9071 O.3     1  UNL1       -0.3794
      8 O          16.2580   69.0013   -4.9296 O.3     1  UNL1       -0.3779
      9 C          17.6070   70.3630   -3.4339 C.3     1  UNL1        0.1713
     10 C          17.4121   69.8106   -4.8305 C.3     1  UNL1        0.1895
     11 C          18.4903   71.5772   -3.6925 C.3     1  UNL1        0.1764
     12 C          17.3094   71.0795   -5.6597 C.3     1  UNL1        0.2383
     13 H          15.7841   70.0695   -2.7336 H       1  UNL1        0.2105
     14 H          16.3722   68.2069   -4.3849 H       1  UNL1        0.2106
     15 O          15.7173   70.2230   -7.8299 O.2     1  UNL1       -0.2464
     16 O          19.2740   70.4209  -10.7544 O.2     1  UNL1       -0.2670
     17 N          17.7934   70.8990   -6.9992 N.ar    1  UNL1       -0.2551
     18 N          17.4895   70.3224   -9.2843 N.ar    1  UNL1       -0.2743
     19 C          16.9118   70.4644   -8.0162 C.ar    1  UNL1        0.3323
     20 C          19.1287   71.1525   -7.2936 C.ar    1  UNL1        0.0869
     21 C          19.6644   71.0109   -8.5078 C.ar    1  UNL1        0.0795
     22 C          18.8112   70.5607   -9.6265 C.ar    1  UNL1        0.2626
     23 H          16.8944   70.0204  -10.0085 H       1  UNL1        0.1734
     24 O          21.4434   72.2547   -0.3718 O.3     1  UNL1       -0.2703
     25 P          22.0148   71.6040    0.9931 P.3     1  UNL1        0.2208
     26 O          23.6124   71.8286    0.8708 O.co2   1  UNL1       -0.4371
     27 O          21.6052   70.1764    1.2127 O.2     1  UNL1       -0.5170
     28 O          21.5482   72.6203    2.1568 O.3     1  UNL1       -0.2858
     29 O          19.7804   74.1502    2.5454 O.3     1  UNL1       -0.3258
     30 O          22.9791   76.5838    3.4922 O.3     1  UNL1       -0.3794
     31 O          21.2845   75.5903    5.5872 O.3     1  UNL1       -0.3794
     32 O          23.1824   74.7268    1.2809 O.3     1  UNL1       -0.3775
     33 C          22.2575   75.3515    3.4153 C.3     1  UNL1        0.1715
     34 C          20.9554   75.5082    4.2033 C.3     1  UNL1        0.1694
     35 C          21.9643   75.0352    1.9499 C.3     1  UNL1        0.1967
     36 C          20.0081   74.3280    3.9483 C.3     1  UNL1        0.1761
     37 C          20.9742   73.8777    1.8090 C.3     1  UNL1        0.2704
     38 H          23.1688   76.7902    4.4200 H       1  UNL1        0.2105
     39 H          21.8834   76.3391    5.7345 H       1  UNL1        0.2105
     40 H          23.8006   75.4674    1.3772 H       1  UNL1        0.2106
     41 O          18.2830   73.3549    5.2846 O.3     1  UNL1       -0.3794
     42 C          18.6427   74.5399    4.5986 C.3     1  UNL1        0.1693
     43 H          17.4161   73.4751    5.7038 H       1  UNL1        0.2105
@<TRIPOS>UNITY_ATOM_ATTR
2 1
charge -1
26 1
charge -1
@<TRIPOS>BOND
     1    25    28    1
     2    25    24    1
     3    25    26    1
     4    25    27    2
     5     1     4    1
     6     1    24    1
     7     1     2    1
     8     1     3    2
     9     6    11    1
    10     6    12    1
    11    29    36    1
    12    29    37    1
    13     7     9    1
    14     7    13    1
    15     8    10    1
    16     8    14    1
    17    28    37    1
    18     4     5    1
    19    30    33    1
    20    30    38    1
    21    31    34    1
    22    31    39    1
    23    32    35    1
    24    32    40    1
    25    41    42    1
    26    41    43    1
    27    15    19    2
    28    16    22    2
    29    17    12    1
    30    17    19   ar
    31    17    20   ar
    32    18    19   ar
    33    18    22   ar
    34    18    23    1
    35     9    10    1
    36     9    11    1
    37    10    12    1
    38    11     5    1
    39    33    34    1
    40    33    35    1
    41    34    36    1
    42    35    37    1
    43    36    42    1
    44    20    21   ar
    45    21    22   ar
@<TRIPOS>MOLECULE
*****
 43 45 0 0 0
SMALL
GASTEIGER

@<TRIPOS>ATOM
      1 P          22.7929   71.1435    1.2349 P.3     1  UNL1        0.2189
      2 O          24.1782   70.4263    1.6640 O.co2   1  UNL1       -0.4371
      3 O          21.5983   70.2369    1.1864 O.2     1  UNL1       -0.5170
      4 O          23.1587   71.8984   -0.1486 O.3     1  UNL1       -0.3112
      5 C          22.1435   72.0490   -1.1256 C.3     1  UNL1        0.1811
      6 O          21.8737   70.4851   -2.9298 O.3     1  UNL1       -0.3308
      7 O          23.5477   72.3639   -4.5604 O.3     1  UNL1       -0.3794
      8 O          21.0182   72.9388   -5.4017 O.3     1  UNL1       -0.3779
      9 C          22.5773   72.6593   -3.5572 C.3     1  UNL1        0.1713
     10 C          21.1798   72.4295   -4.0935 C.3     1  UNL1        0.1895
     11 C          22.6819   71.5923   -2.4746 C.3     1  UNL1        0.1764
     12 C          21.0656   70.9156   -4.0373 C.3     1  UNL1        0.2383
     13 H          23.5002   73.0321   -5.2626 H       1  UNL1        0.2105
     14 H          21.0993   73.9052   -5.3849 H       1  UNL1        0.2106
     15 O          19.9021   70.4877   -1.4994 O.2     1  UNL1       -0.2464
     16 O          15.8763   69.2260   -3.3549 O.2     1  UNL1       -0.2670
     17 N          19.7151   70.4756   -3.8279 N.ar    1  UNL1       -0.2551
     18 N          17.8984   69.8600   -2.4253 N.ar    1  UNL1       -0.2743
     19 C          19.2285   70.2904   -2.5128 C.ar    1  UNL1        0.3323
     20 C          18.8882   70.2330   -4.9194 C.ar    1  UNL1        0.0869
     21 C          17.6225   69.8216   -4.8190 C.ar    1  UNL1        0.0795
     22 C          17.0370   69.6040   -3.4804 C.ar    1  UNL1        0.2626
     23 H          17.5380   69.7238   -1.5191 H       1  UNL1        0.1734
     24 O          22.6713   72.3606    2.2917 O.3     1  UNL1       -0.2703
     25 P          23.1868   73.8906    2.2127 P.3     1  UNL1        0.2208
     26 O          22.0497   74.6198    1.3223 O.co2   1  UNL1       -0.4371
     27 O          24.5824   74.0430    1.6805 O.2     1  UNL1       -0.5170
     28 O          22.9722   74.4715    3.7032 O.3     1  UNL1       -0.2858
     29 O          24.8120   75.1665    5.0256 O.3     1  UNL1       -0.3258
     30 O          22.0874   74.4055    8.0336 O.3     1  UNL1       -0.3794
     31 O          22.7683   77.1205    7.3909 O.3     1  UNL1       -0.3794
     32 O          22.2004   72.6748    5.7160 O.3     1  UNL1       -0.3775
     33 C          22.5101   74.8345    6.7365 C.3     1  UNL1        0.1715
     34 C          23.4948   75.9923    6.9115 C.3     1  UNL1        0.1694
     35 C          23.1785   73.6644    6.0170 C.3     1  UNL1        0.1967
     36 C          24.1938   76.3300    5.5877 C.3     1  UNL1        0.1761
     37 C          23.8856   74.1172    4.7383 C.3     1  UNL1        0.2704
     38 H          21.6617   75.1437    8.4956 H       1  UNL1        0.2105
     39 H          22.3314   76.8938    8.2269 H       1  UNL1        0.2105
     40 H          21.7602   72.3963    6.5336 H       1  UNL1        0.2106
     41 O          26.1410   76.9538    6.8240 O.3     1  UNL1       -0.3794
     42 C          25.2927   77.3743    5.7714 C.3     1  UNL1        0.1693
     43 H          26.8455   77.6087    6.9520 H       1  UNL1        0.2105
@<TRIPOS>UNITY_ATOM_ATTR
2 1
charge -1
26 1
charge -1
@<TRIPOS>BOND
     1    25    28    1
     2    25    24    1
     3    25    26    1
     4    25    27    2
     5     1     4    1
     6     1    24    1
     7     1     2    1
     8     1     3    2
     9     6    11    1
    10     6    12    1
    11    29    36    1
    12    29    37    1
    13     7     9    1
    14     7    13    1
    15     8    10    1
    16     8    14    1
    17    28    37    1
    18     4     5    1
    19    30    33    1
    20    30    38    1
    21    31    34    1
    22    31    39    1
    23    32    35    1
    24    32    40    1
    25    41    42    1
    26    41    43    1
    27    15    19    2
    28    16    22    2
    29    17    12    1
    30    17    19   ar
    31    17    20   ar
    32    18    19   ar
    33    18    22   ar
    34    18    23    1
    35     9    10    1
    36     9    11    1
    37    10    12    1
    38    11     5    1
    39    33    34    1
    40    33    35    1
    41    34    36    1
    42    35    37    1
    43    36    42    1
    44    20    21   ar
    45    21    22   ar
@<TRIPOS>MOLECULE
*****
 43 45 0 0 0
SMALL
GASTEIGER

@<TRIPOS>ATOM
      1 P          21.2292   71.9729   -5.5393 P.3     1  UNL1        0.2189
      2 O          20.7390   70.6542   -4.7406 O.co2   1  UNL1       -0.4371
      3 O          20.4352   73.2150   -5.2595 O.2     1  UNL1       -0.5170
      4 O          21.2693   71.4981   -7.0855 O.3     1  UNL1       -0.3112
      5 C          20.2199   71.9063   -7.9456 C.3     1  UNL1        0.1811
      6 O          19.0126   69.9107   -7.3678 O.3     1  UNL1       -0.3308
      7 O          18.0595   69.8886  -10.2107 O.3     1  UNL1       -0.3794
      8 O          15.9178   70.9193   -8.8737 O.3     1  UNL1       -0.3779
      9 C          18.3009   70.9994   -9.3487 C.3     1  UNL1        0.1713
     10 C          17.2010   71.1107   -8.3136 C.3     1  UNL1        0.1895
     11 C          19.5149   70.6708   -8.4886 C.3     1  UNL1        0.1764
     12 C          17.5799   70.0147   -7.3321 C.3     1  UNL1        0.2383
     13 H          17.2887   70.0752  -10.7701 H       1  UNL1        0.2105
     14 H          15.7232   71.6418   -9.4908 H       1  UNL1        0.2106
     15 O          16.2865   68.1842   -5.6133 O.2     1  UNL1       -0.2464
     16 O          16.0420   71.2764   -2.2046 O.2     1  UNL1       -0.2670
     17 N          17.1673   70.3147   -5.9901 N.ar    1  UNL1       -0.2551
     18 N          16.1660   69.7253   -3.9173 N.ar    1  UNL1       -0.2743
     19 C          16.5246   69.3248   -5.2108 C.ar    1  UNL1        0.3323
     20 C          17.4013   71.5786   -5.4594 C.ar    1  UNL1        0.0869
     21 C          17.0520   71.9451   -4.2245 C.ar    1  UNL1        0.0795
     22 C          16.3757   70.9699   -3.3450 C.ar    1  UNL1        0.2626
     23 H          15.7165   69.0523   -3.3563 H       1  UNL1        0.1734
     24 O          22.7947   72.0732   -5.1493 O.3     1  UNL1       -0.2703
     25 P          23.5214   72.2868   -3.7212 P.3     1  UNL1        0.2208
     26 O          24.5746   73.4790   -4.0155 O.co2   1  UNL1       -0.4371
     27 O          24.1383   71.0419   -3.1524 O.2     1  UNL1       -0.5170
     28 O          22.3927   72.9616   -2.7855 O.3     1  UNL1       -0.2858
     29 O          21.7961   73.5701   -0.5740 O.3     1  UNL1       -0.3258
     30 O          19.0091   70.5910   -1.2134 O.3     1  UNL1       -0.3794
     31 O          18.1643   73.3354   -1.1609 O.3     1  UNL1       -0.3794
     32 O          21.6987   70.2973   -2.2428 O.3     1  UNL1       -0.3775
     33 C          19.8490   71.6896   -1.5782 C.3     1  UNL1        0.1715
     34 C          19.4510   72.8996   -0.7308 C.3     1  UNL1        0.1694
     35 C          21.3064   71.3101   -1.3226 C.3     1  UNL1        0.1967
     36 C          20.4741   74.0348   -0.8710 C.3     1  UNL1        0.1761
     37 C          22.2341   72.5208   -1.4394 C.3     1  UNL1        0.2704
     38 H          18.0823   70.8252   -1.3737 H       1  UNL1        0.2105
     39 H          17.5278   72.6092   -1.0677 H       1  UNL1        0.2105
     40 H          21.1039   69.5363   -2.1587 H       1  UNL1        0.2106
     41 O          19.0826   75.9243   -0.4211 O.3     1  UNL1       -0.3794
     42 C          20.1819   75.1894    0.0848 C.3     1  UNL1        0.1693
     43 H          18.8851   76.6623    0.1773 H       1  UNL1        0.2105
@<TRIPOS>UNITY_ATOM_ATTR
2 1
charge -1
26 1
charge -1
@<TRIPOS>BOND
     1    25    28    1
     2    25    24    1
     3    25    26    1
     4    25    27    2
     5     1     4    1
     6     1    24    1
     7     1     2    1
     8     1     3    2
     9     6    11    1
    10     6    12    1
    11    29    36    1
    12    29    37    1
    13     7     9    1
    14     7    13    1
    15     8    10    1
    16     8    14    1
    17    28    37    1
    18     4     5    1
    19    30    33    1
    20    30    38    1
    21    31    34    1
    22    31    39    1
    23    32    35    1
    24    32    40    1
    25    41    42    1
    26    41    43    1
    27    15    19    2
    28    16    22    2
    29    17    12    1
    30    17    19   ar
    31    17    20   ar
    32    18    19   ar
    33    18    22   ar
    34    18    23    1
    35     9    10    1
    36     9    11    1
    37    10    12    1
    38    11     5    1
    39    33    34    1
    40    33    35    1
    41    34    36    1
    42    35    37    1
    43    36    42    1
    44    20    21   ar
    45    21    22   ar
@<TRIPOS>MOLECULE
*****
 43 45 0 0 0
SMALL
GASTEIGER

@<TRIPOS>ATOM
      1 P          22.9605   72.5346   -3.8728 P.3     1  UNL1        0.2189
      2 O          22.9226   71.4785   -2.6478 O.co2   1  UNL1       -0.4371
      3 O          24.3301   72.8399   -4.4042 O.2     1  UNL1       -0.5170
      4 O          22.1232   73.8031   -3.3181 O.3     1  UNL1       -0.3112
      5 C          21.3764   73.6502   -2.1236 C.3     1  UNL1        0.1811
      6 O          21.8490   74.3872    0.1141 O.3     1  UNL1       -0.3308
      7 O          22.6984   76.9842   -1.1207 O.3     1  UNL1       -0.3794
      8 O          25.0809   75.7493   -0.6357 O.3     1  UNL1       -0.3779
      9 C          22.8575   75.6554   -1.6151 C.3     1  UNL1        0.1713
     10 C          23.9453   74.9351   -0.8461 C.3     1  UNL1        0.1895
     11 C          21.6162   74.8600   -1.2307 C.3     1  UNL1        0.1764
     12 C          23.2334   74.5791    0.4480 C.3     1  UNL1        0.2383
     13 H          23.4789   77.5116   -1.3544 H       1  UNL1        0.2105
     14 H          25.4987   75.9482   -1.4882 H       1  UNL1        0.2106
     15 O          25.4661   74.4670    2.1744 O.2     1  UNL1       -0.2464
     16 O          25.0956   69.8984    2.6553 O.2     1  UNL1       -0.2670
     17 N          23.7420   73.3736    1.0391 N.ar    1  UNL1       -0.2551
     18 N          25.2797   72.1923    2.4126 N.ar    1  UNL1       -0.2743
     19 C          24.8695   73.4260    1.8914 C.ar    1  UNL1        0.3323
     20 C          23.1240   72.1567    0.7722 C.ar    1  UNL1        0.0869
     21 C          23.5283   70.9889    1.2762 C.ar    1  UNL1        0.0795
     22 C          24.6993   70.9562    2.1760 C.ar    1  UNL1        0.2626
     23 H          26.0635   72.2043    3.0087 H       1  UNL1        0.1734
     24 O          21.9517   71.8768   -4.9511 O.3     1  UNL1       -0.2703
     25 P          21.1051   72.5425   -6.1565 P.3     1  UNL1        0.2208
     26 O          21.6101   71.7267   -7.4592 O.co2   1  UNL1       -0.4371
     27 O          21.2537   74.0327   -6.2631 O.2     1  UNL1       -0.5170
     28 O          19.5908   72.0365   -5.9204 O.3     1  UNL1       -0.2858
     29 O          19.1352   69.9879   -4.8193 O.3     1  UNL1       -0.3258
     30 O          15.6246   70.3829   -6.9572 O.3     1  UNL1       -0.3794
     31 O          15.6082   70.7963   -4.1152 O.3     1  UNL1       -0.3794
     32 O          18.1415   71.1597   -8.1577 O.3     1  UNL1       -0.3775
     33 C          16.7559   70.8434   -6.2132 C.3     1  UNL1        0.1715
     34 C          16.7016   70.2144   -4.8196 C.3     1  UNL1        0.1694
     35 C          18.0338   70.4295   -6.9405 C.3     1  UNL1        0.1967
     36 C          18.0127   70.4454   -4.0561 C.3     1  UNL1        0.1761
     37 C          19.2748   70.6554   -6.0750 C.3     1  UNL1        0.2704
     38 H          14.8099   70.6430   -6.5010 H       1  UNL1        0.2105
     39 H          14.7866   70.6438   -4.6081 H       1  UNL1        0.2105
     40 H          17.3501   71.0081   -8.6968 H       1  UNL1        0.2106
     41 O          17.7774   68.3255   -2.9791 O.3     1  UNL1       -0.3794
     42 C          18.0407   69.6936   -2.7271 C.3     1  UNL1        0.1693
     43 H          17.7924   67.8346   -2.1422 H       1  UNL1        0.2105
@<TRIPOS>UNITY_ATOM_ATTR
2 1
charge -1
26 1
charge -1
@<TRIPOS>BOND
     1    25    28    1
     2    25    24    1
     3    25    26    1
     4    25    27    2
     5     1     4    1
     6     1    24    1
     7     1     2    1
     8     1     3    2
     9     6    11    1
    10     6    12    1
    11    29    36    1
    12    29    37    1
    13     7     9    1
    14     7    13    1
    15     8    10    1
    16     8    14    1
    17    28    37    1
    18     4     5    1
    19    30    33    1
    20    30    38    1
    21    31    34    1
    22    31    39    1
    23    32    35    1
    24    32    40    1
    25    41    42    1
    26    41    43    1
    27    15    19    2
    28    16    22    2
    29    17    12    1
    30    17    19   ar
    31    17    20   ar
    32    18    19   ar
    33    18    22   ar
    34    18    23    1
    35     9    10    1
    36     9    11    1
    37    10    12    1
    38    11     5    1
    39    33    34    1
    40    33    35    1
    41    34    36    1
    42    35    37    1
    43    36    42    1
    44    20    21   ar
    45    21    22   ar
@<TRIPOS>MOLECULE
*****
 43 45 0 0 0
SMALL
GASTEIGER

@<TRIPOS>ATOM
      1 P          22.4310   72.6734   -3.7823 P.3     1  UNL1        0.2189
      2 O          23.4060   72.5452   -5.0670 O.co2   1  UNL1       -0.4371
      3 O          22.1132   74.0794   -3.3656 O.2     1  UNL1       -0.5170
      4 O          23.1446   71.7522   -2.6597 O.3     1  UNL1       -0.3112
      5 C          23.2183   72.2403   -1.3315 C.3     1  UNL1        0.1811
      6 O          24.2107   71.0338    0.4942 O.3     1  UNL1       -0.3308
      7 O          21.4710   69.9285    1.0076 O.3     1  UNL1       -0.3794
      8 O          21.6863   71.8843    2.8957 O.3     1  UNL1       -0.3779
      9 C          21.8499   71.2291    0.5601 C.3     1  UNL1        0.1713
     10 C          22.4337   72.0299    1.7053 C.3     1  UNL1        0.1895
     11 C          23.0506   71.0757   -0.3653 C.3     1  UNL1        0.1764
     12 C          23.8317   71.4460    1.8176 C.3     1  UNL1        0.2383
     13 H          20.7057   70.0008    1.5999 H       1  UNL1        0.2105
     14 H          20.8052   72.2710    2.7738 H       1  UNL1        0.2106
     15 O          26.4899   70.8209    2.5397 O.2     1  UNL1       -0.2464
     16 O          27.4097   75.1969    3.6558 O.2     1  UNL1       -0.2670
     17 N          24.7877   72.4026    2.2997 N.ar    1  UNL1       -0.2551
     18 N          26.9457   73.0003    3.0947 N.ar    1  UNL1       -0.2743
     19 C          26.0966   71.9852    2.6357 C.ar    1  UNL1        0.3323
     20 C          24.4240   73.7381    2.4349 C.ar    1  UNL1        0.0869
     21 C          25.2452   74.6936    2.8752 C.ar    1  UNL1        0.0795
     22 C          26.6305   74.3412    3.2476 C.ar    1  UNL1        0.2626
     23 H          27.8625   72.7329    3.3351 H       1  UNL1        0.1734
     24 O          21.1458   71.7922   -4.2120 O.3     1  UNL1       -0.2703
     25 P          19.7975   71.4169   -3.4031 P.3     1  UNL1        0.2208
     26 O          19.2588   72.8545   -2.8927 O.co2   1  UNL1       -0.4371
     27 O          19.9965   70.4066   -2.3106 O.2     1  UNL1       -0.5170
     28 O          18.7475   70.9699   -4.5444 O.3     1  UNL1       -0.2858
     29 O          19.2857   72.2111   -6.4903 O.3     1  UNL1       -0.3258
     30 O          15.9872   70.1676   -7.9025 O.3     1  UNL1       -0.3794
     31 O          18.6083   69.4364   -8.8207 O.3     1  UNL1       -0.3794
     32 O          16.0201   71.1506   -5.1800 O.3     1  UNL1       -0.3775
     33 C          17.1787   70.3442   -7.1316 C.3     1  UNL1        0.1715
     34 C          18.3340   70.6303   -8.0931 C.3     1  UNL1        0.1694
     35 C          16.9805   71.5118   -6.1668 C.3     1  UNL1        0.1967
     36 C          19.5849   71.0928   -7.3339 C.3     1  UNL1        0.1761
     37 C          18.2949   71.9241   -5.5015 C.3     1  UNL1        0.2704
     38 H          16.1062   69.4274   -8.5169 H       1  UNL1        0.2105
     39 H          17.8102   69.1548   -9.2951 H       1  UNL1        0.2105
     40 H          15.1926   70.8919   -5.6138 H       1  UNL1        0.2106
     41 O          21.1062   72.8402   -7.9181 O.3     1  UNL1       -0.3794
     42 C          20.6984   71.5341   -8.2814 C.3     1  UNL1        0.1693
     43 H          21.8148   73.1341   -8.5124 H       1  UNL1        0.2105
@<TRIPOS>UNITY_ATOM_ATTR
2 1
charge -1
26 1
charge -1
@<TRIPOS>BOND
     1    25    28    1
     2    25    24    1
     3    25    26    1
     4    25    27    2
     5     1     4    1
     6     1    24    1
     7     1     2    1
     8     1     3    2
     9     6    11    1
    10     6    12    1
    11    29    36    1
    12    29    37    1
    13     7     9    1
    14     7    13    1
    15     8    10    1
    16     8    14    1
    17    28    37    1
    18     4     5    1
    19    30    33    1
    20    30    38    1
    21    31    34    1
    22    31    39    1
    23    32    35    1
    24    32    40    1
    25    41    42    1
    26    41    43    1
    27    15    19    2
    28    16    22    2
    29    17    12    1
    30    17    19   ar
    31    17    20   ar
    32    18    19   ar
    33    18    22   ar
    34    18    23    1
    35     9    10    1
    36     9    11    1
    37    10    12    1
    38    11     5    1
    39    33    34    1
    40    33    35    1
    41    34    36    1
    42    35    37    1
    43    36    42    1
    44    20    21   ar
    45    21    22   ar
@<TRIPOS>MOLECULE
*****
 43 45 0 0 0
SMALL
GASTEIGER

@<TRIPOS>ATOM
      1 P          22.5982   72.4962   -4.0852 P.3     1  UNL1        0.2189
      2 O          23.7345   71.4259   -3.6602 O.co2   1  UNL1       -0.4371
      3 O          22.8208   73.8913   -3.5795 O.2     1  UNL1       -0.5170
      4 O          21.2137   71.7953   -3.6271 O.3     1  UNL1       -0.3112
      5 C          21.2640   70.7806   -2.6395 C.3     1  UNL1        0.1811
      6 O          20.7179   70.5866   -0.3075 O.3     1  UNL1       -0.3308
      7 O          18.6659   72.7160   -0.8031 O.3     1  UNL1       -0.3794
      8 O          20.7055   74.1125    0.3487 O.3     1  UNL1       -0.3779
      9 C          19.9647   72.5645   -1.3736 C.3     1  UNL1        0.1713
     10 C          21.0296   72.9353   -0.3626 C.3     1  UNL1        0.1895
     11 C          20.2192   71.0754   -1.5719 C.3     1  UNL1        0.1764
     12 C          21.0613   71.7045    0.5275 C.3     1  UNL1        0.2383
     13 H          18.4806   73.6590   -0.6674 H       1  UNL1        0.2105
     14 H          20.6980   74.8670   -0.2607 H       1  UNL1        0.2106
     15 O          21.7175   72.1928    3.2310 O.2     1  UNL1       -0.2464
     16 O          26.0666   70.7960    2.6183 O.2     1  UNL1       -0.2670
     17 N          22.3575   71.4769    1.1014 N.ar    1  UNL1       -0.2551
     18 N          23.8824   71.4967    2.9237 N.ar    1  UNL1       -0.2743
     19 C          22.5829   71.7557    2.4696 C.ar    1  UNL1        0.3323
     20 C          23.3886   70.9823    0.3102 C.ar    1  UNL1        0.0869
     21 C          24.6227   70.7421    0.7582 C.ar    1  UNL1        0.0795
     22 C          24.9414   71.0065    2.1761 C.ar    1  UNL1        0.2626
     23 H          24.0628   71.6838    3.8736 H       1  UNL1        0.1734
     24 O          22.5574   72.3629   -5.6957 O.3     1  UNL1       -0.2703
     25 P          21.7215   73.1854   -6.8081 P.3     1  UNL1        0.2208
     26 O          22.4892   72.8298   -8.1871 O.co2   1  UNL1       -0.4371
     27 O          21.6033   74.6553   -6.5265 O.2     1  UNL1       -0.5170
     28 O          20.3105   72.4093   -6.9153 O.3     1  UNL1       -0.2858
     29 O          19.6332   70.3033   -6.0651 O.3     1  UNL1       -0.3258
     30 O          17.6372   70.2287   -9.6791 O.3     1  UNL1       -0.3794
     31 O          16.1544   70.5998   -7.2478 O.3     1  UNL1       -0.3794
     32 O          20.2944   71.3661   -9.5204 O.3     1  UNL1       -0.3775
     33 C          18.1778   70.8339   -8.5015 C.3     1  UNL1        0.1715
     34 C          17.5174   70.1860   -7.2830 C.3     1  UNL1        0.1694
     35 C          19.6890   70.6126   -8.4753 C.3     1  UNL1        0.1967
     36 C          18.2319   70.5890   -5.9859 C.3     1  UNL1        0.1761
     37 C          20.2931   70.9995   -7.1242 C.3     1  UNL1        0.2704
     38 H          16.6780   70.3660   -9.7022 H       1  UNL1        0.2105
     39 H          15.7149   70.3397   -8.0726 H       1  UNL1        0.2105
     40 H          19.9037   71.1117  -10.3704 H       1  UNL1        0.2106
     41 O          16.2842   69.9952   -4.7357 O.3     1  UNL1       -0.3794
     42 C          17.6899   69.8319   -4.7755 C.3     1  UNL1        0.1693
     43 H          15.9254   69.5184   -3.9704 H       1  UNL1        0.2105
@<TRIPOS>UNITY_ATOM_ATTR
2 1
charge -1
26 1
charge -1
@<TRIPOS>BOND
     1    25    28    1
     2    25    24    1
     3    25    26    1
     4    25    27    2
     5     1     4    1
     6     1    24    1
     7     1     2    1
     8     1     3    2
     9     6    11    1
    10     6    12    1
    11    29    36    1
    12    29    37    1
    13     7     9    1
    14     7    13    1
    15     8    10    1
    16     8    14    1
    17    28    37    1
    18     4     5    1
    19    30    33    1
    20    30    38    1
    21    31    34    1
    22    31    39    1
    23    32    35    1
    24    32    40    1
    25    41    42    1
    26    41    43    1
    27    15    19    2
    28    16    22    2
    29    17    12    1
    30    17    19   ar
    31    17    20   ar
    32    18    19   ar
    33    18    22   ar
    34    18    23    1
    35     9    10    1
    36     9    11    1
    37    10    12    1
    38    11     5    1
    39    33    34    1
    40    33    35    1
    41    34    36    1
    42    35    37    1
    43    36    42    1
    44    20    21   ar
    45    21    22   ar
@<TRIPOS>MOLECULE
*****
 43 45 0 0 0
SMALL
GASTEIGER

@<TRIPOS>ATOM
      1 P          21.8630   72.5485   -5.6204 P.3     1  UNL1        0.2189
      2 O          21.2073   74.0182   -5.4548 O.co2   1  UNL1       -0.4371
      3 O          23.1378   72.5086   -6.4108 O.2     1  UNL1       -0.5170
      4 O          20.6506   71.6450   -6.1963 O.3     1  UNL1       -0.3112
      5 C          20.0718   72.0030   -7.4391 C.3     1  UNL1        0.1811
      6 O          18.8692   69.9698   -6.9992 O.3     1  UNL1       -0.3308
      7 O          18.1176   70.0068   -9.9017 O.3     1  UNL1       -0.3794
      8 O          15.8667   70.9597   -8.6926 O.3     1  UNL1       -0.3779
      9 C          18.2749   71.0982   -8.9965 C.3     1  UNL1        0.1713
     10 C          17.1033   71.1602   -8.0389 C.3     1  UNL1        0.1895
     11 C          19.4325   70.7695   -8.0620 C.3     1  UNL1        0.1764
     12 C          17.4356   70.0454   -7.0618 C.3     1  UNL1        0.2383
     13 H          17.3840   70.1938  -10.5090 H       1  UNL1        0.2105
     14 H          15.7005   71.6949   -9.3030 H       1  UNL1        0.2106
     15 O          16.2552   68.0893   -5.4010 O.2     1  UNL1       -0.2464
     16 O          15.5075   71.1405   -2.0286 O.2     1  UNL1       -0.2670
     17 N          16.9243   70.3009   -5.7447 N.ar    1  UNL1       -0.2551
     18 N          15.8840   69.6101   -3.7231 N.ar    1  UNL1       -0.2743
     19 C          16.3500   69.2490   -4.9937 C.ar    1  UNL1        0.3323
     20 C          16.9953   71.5829   -5.2105 C.ar    1  UNL1        0.0869
     21 C          16.5452   71.9111   -3.9976 C.ar    1  UNL1        0.0795
     22 C          15.9309   70.8703   -3.1483 C.ar    1  UNL1        0.2626
     23 H          15.4796   68.8936   -3.1819 H       1  UNL1        0.1734
     24 O          22.0023   72.0385   -4.0928 O.3     1  UNL1       -0.2703
     25 P          23.2615   72.0536   -3.0793 P.3     1  UNL1        0.2208
     26 O          23.9692   73.4754   -3.3879 O.co2   1  UNL1       -0.4371
     27 O          24.1719   70.8672   -3.2113 O.2     1  UNL1       -0.5170
     28 O          22.6057   72.2339   -1.6156 O.3     1  UNL1       -0.2858
     29 O          23.4982   70.6686   -0.0762 O.3     1  UNL1       -0.3258
     30 O          20.4439   72.2039    2.2400 O.3     1  UNL1       -0.3794
     31 O          23.1659   72.8898    2.8469 O.3     1  UNL1       -0.3794
     32 O          20.0326   71.7766   -0.5933 O.3     1  UNL1       -0.3775
     33 C          21.4895   72.2501    1.2653 C.3     1  UNL1        0.1715
     34 C          22.7987   71.8478    1.9471 C.3     1  UNL1        0.1694
     35 C          21.1560   71.2847    0.1294 C.3     1  UNL1        0.1967
     36 C          23.9114   71.6152    0.9161 C.3     1  UNL1        0.1761
     37 C          22.3461   71.0865   -0.8111 C.3     1  UNL1        0.2704
     38 H          20.6492   72.8150    2.9638 H       1  UNL1        0.2105
     39 H          22.4546   73.0269    3.4922 H       1  UNL1        0.2105
     40 H          19.2859   71.8975    0.0130 H       1  UNL1        0.2106
     41 O          24.8092   70.2344    2.6471 O.3     1  UNL1       -0.3794
     42 C          25.1807   71.0614    1.5597 C.3     1  UNL1        0.1693
     43 H          25.6071   69.8745    3.0662 H       1  UNL1        0.2105
@<TRIPOS>UNITY_ATOM_ATTR
2 1
charge -1
26 1
charge -1
@<TRIPOS>BOND
     1    25    28    1
     2    25    24    1
     3    25    26    1
     4    25    27    2
     5     1     4    1
     6     1    24    1
     7     1     2    1
     8     1     3    2
     9     6    11    1
    10     6    12    1
    11    29    36    1
    12    29    37    1
    13     7     9    1
    14     7    13    1
    15     8    10    1
    16     8    14    1
    17    28    37    1
    18     4     5    1
    19    30    33    1
    20    30    38    1
    21    31    34    1
    22    31    39    1
    23    32    35    1
    24    32    40    1
    25    41    42    1
    26    41    43    1
    27    15    19    2
    28    16    22    2
    29    17    12    1
    30    17    19   ar
    31    17    20   ar
    32    18    19   ar
    33    18    22   ar
    34    18    23    1
    35     9    10    1
    36     9    11    1
    37    10    12    1
    38    11     5    1
    39    33    34    1
    40    33    35    1
    41    34    36    1
    42    35    37    1
    43    36    42    1
    44    20    21   ar
    45    21    22   ar
