@<TRIPOS>MOLECULE
GDU
 43 45 0 0 0
SMALL
GASTEIGER

@<TRIPOS>ATOM
      1 P          21.0477   71.3865   -2.3486 P.3     1  UNL1        0.2189
      2 O          22.2743   70.5676   -2.4687 O.2     1  UNL1       -0.5170
      3 O          21.3651   72.8982   -2.8034 O.3     1  UNL1       -0.4371
      4 O          19.8978   70.7728   -3.2910 O.3     1  UNL1       -0.3112
      5 C          18.7099   70.7010   -2.5010 C.3     1  UNL1        0.1811
      6 C          17.0346   70.5083   -5.6765 C.3     1  UNL1        0.2383
      7 C          16.9769   69.0635   -5.1178 C.3     1  UNL1        0.1895
      8 O          15.8002   68.3889   -5.5691 O.3     1  UNL1       -0.3779
      9 C          16.9212   69.3089   -3.5875 C.3     1  UNL1        0.1713
     10 C          17.4843   70.7320   -3.4159 C.3     1  UNL1        0.1764
     11 O          17.8603   71.2065   -4.7204 O.3     1  UNL1       -0.3308
     12 O          15.5732   69.2372   -3.1187 O.3     1  UNL1       -0.3794
     13 H          15.8251   67.5000   -5.1883 H       1  UNL1        0.2106
     14 H          15.2583   68.3427   -3.3073 H       1  UNL1        0.2105
     15 N          17.6536   70.5264   -7.0029 N.ar    1  UNL1       -0.2551
     16 C          16.8813   70.4405   -8.1004 C.ar    1  UNL1        0.3323
     17 N          17.4250   70.4584   -9.3317 N.ar    1  UNL1       -0.2743
     18 C          18.7599   70.5533   -9.4842 C.ar    1  UNL1        0.2626
     19 C          19.5863   70.6386   -8.3370 C.ar    1  UNL1        0.0795
     20 C          19.0146   70.6228   -7.1141 C.ar    1  UNL1        0.0869
     21 O          15.6755   70.3549   -7.9786 O.2     1  UNL1       -0.2464
     22 O          19.2533   70.5648  -10.5982 O.2     1  UNL1       -0.2670
     23 H          16.8522   70.3998  -10.1128 H       1  UNL1        0.1734
     24 O          20.5481   71.3817   -0.8180 O.3     1  UNL1       -0.2703
     25 P          21.8625   71.2504    0.1014 P.3     1  UNL1        0.2208
     26 O          21.7691   70.0233    0.9227 O.2     1  UNL1       -0.5170
     27 O          23.1682   71.1687   -0.8380 O.3     1  UNL1       -0.4371
     28 O          21.9754   72.5348    1.0646 O.3     1  UNL1       -0.2858
     29 C          22.4886   72.0722    2.3146 C.3     1  UNL1        0.2704
     30 C          21.6956   72.7083    3.4573 C.3     1  UNL1        0.1967
     31 C          21.8107   74.2324    3.3561 C.3     1  UNL1        0.1715
     32 C          23.2956   74.6093    3.3038 C.3     1  UNL1        0.1694
     33 C          23.9673   73.8298    2.1705 C.3     1  UNL1        0.1761
     34 O          20.3232   72.3230    3.3601 O.3     1  UNL1       -0.3775
     35 O          21.1995   74.8369    4.4978 O.3     1  UNL1       -0.3794
     36 O          23.9158   74.2822    4.5481 O.3     1  UNL1       -0.3794
     37 O          23.8646   72.4292    2.4228 O.3     1  UNL1       -0.3258
     38 H          20.2993   71.3583    3.4212 H       1  UNL1        0.2106
     39 H          20.2733   74.5639    4.4969 H       1  UNL1        0.2105
     40 H          23.4582   74.7899    5.2308 H       1  UNL1        0.2105
     41 C          25.4435   74.2245    2.0873 C.3     1  UNL1        0.1693
     42 O          26.2378   73.2357    2.7448 O.3     1  UNL1       -0.3794
     43 H          27.1588   73.5209    2.6692 H       1  UNL1        0.2105
@<TRIPOS>BOND
     1    15    16   ar
     2    15    20   ar
     3    15     6    1
     4    16    17   ar
     5    16    21    2
     6    17    18   ar
     7    17    23    1
     8    18    19   ar
     9    18    22    2
    10    19    20   ar
    11     6     7    1
    12     6    11    1
    13     7     8    1
    14     7     9    1
    15     8    13    1
    16     9    10    1
    17     9    12    1
    18    10    11    1
    19    10     5    1
    20    12    14    1
    21     5     4    1
    22     4     1    1
    23     1     2    2
    24     1     3    1
    25     1    24    1
    26    24    25    1
    27    25    26    2
    28    25    27    1
    29    25    28    1
    30    28    29    1
    31    29    30    1
    32    29    37    1
    33    30    31    1
    34    30    34    1
    35    31    32    1
    36    31    35    1
    37    32    33    1
    38    32    36    1
    39    33    41    1
    40    33    37    1
    41    41    42    1
    42    34    38    1
    43    35    39    1
    44    36    40    1
    45    42    43    1
@<TRIPOS>MOLECULE
GDU
 43 45 0 0 0
SMALL
GASTEIGER

@<TRIPOS>ATOM
      1 P          20.9717   71.4414   -2.0234 P.3     1  UNL1        0.2189
      2 O          22.2255   70.6952   -2.2699 O.2     1  UNL1       -0.5170
      3 O          21.2669   73.0230   -2.0890 O.3     1  UNL1       -0.4371
      4 O          19.8855   71.0513   -3.1436 O.3     1  UNL1       -0.3112
      5 C          18.7413   70.5473   -2.4527 C.3     1  UNL1        0.1811
      6 C          17.0522   70.4855   -5.6260 C.3     1  UNL1        0.2383
      7 C          16.9569   69.0283   -5.1061 C.3     1  UNL1        0.1895
      8 O          15.7611   68.3981   -5.5710 O.3     1  UNL1       -0.3779
      9 C          16.9124   69.2338   -3.5695 C.3     1  UNL1        0.1713
     10 C          17.5143   70.6360   -3.3619 C.3     1  UNL1        0.1764
     11 O          17.8993   71.1351   -4.6546 O.3     1  UNL1       -0.3308
     12 O          15.5643   69.1860   -3.0979 O.3     1  UNL1       -0.3794
     13 H          15.7629   67.4989   -5.2143 H       1  UNL1        0.2106
     14 H          15.2248   68.3058   -3.3092 H       1  UNL1        0.2105
     15 N          17.6675   70.5225   -6.9537 N.ar    1  UNL1       -0.2551
     16 C          16.8920   70.4560   -8.0503 C.ar    1  UNL1        0.3323
     17 N          17.4323   70.4916   -9.2826 N.ar    1  UNL1       -0.2743
     18 C          18.7670   70.5850   -9.4374 C.ar    1  UNL1        0.2626
     19 C          19.5968   70.6500   -8.2913 C.ar    1  UNL1        0.0795
     20 C          19.0285   70.6167   -7.0672 C.ar    1  UNL1        0.0869
     21 O          15.6863   70.3721   -7.9265 O.2     1  UNL1       -0.2464
     22 O          19.2574   70.6125  -10.5525 O.2     1  UNL1       -0.2670
     23 H          16.8572   70.4469  -10.0630 H       1  UNL1        0.1734
     24 O          20.4011   71.0634   -0.5660 O.3     1  UNL1       -0.2703
     25 P          21.6277   71.2041    0.4663 P.3     1  UNL1        0.2208
     26 O          21.9303   69.8811    1.0556 O.2     1  UNL1       -0.5170
     27 O          22.9253   71.7529   -0.3141 O.3     1  UNL1       -0.4371
     28 O          21.2304   72.2355    1.6361 O.3     1  UNL1       -0.2858
     29 C          22.3906   73.0236    1.9061 C.3     1  UNL1        0.2704
     30 C          22.9697   72.6280    3.2653 C.3     1  UNL1        0.1967
     31 C          21.9042   72.8468    4.3439 C.3     1  UNL1        0.1715
     32 C          21.3968   74.2899    4.2460 C.3     1  UNL1        0.1694
     33 C          20.9348   74.5588    2.8117 C.3     1  UNL1        0.1761
     34 O          23.3522   71.2517    3.2404 O.3     1  UNL1       -0.3775
     35 O          22.4748   72.6224    5.6349 O.3     1  UNL1       -0.3794
     36 O          22.4499   75.1910    4.5909 O.3     1  UNL1       -0.3794
     37 O          22.0338   74.4039    1.9150 O.3     1  UNL1       -0.3258
     38 H          24.0168   71.1594    2.5443 H       1  UNL1        0.2106
     39 H          22.7901   71.7099    5.6468 H       1  UNL1        0.2105
     40 H          22.7120   74.9817    5.4968 H       1  UNL1        0.2105
     41 C          20.3942   75.9870    2.7112 C.3     1  UNL1        0.1693
     42 O          19.2355   76.1160    3.5370 O.3     1  UNL1       -0.3794
     43 H          18.9271   77.0281    3.4460 H       1  UNL1        0.2105
@<TRIPOS>BOND
     1    15    16   ar
     2    15    20   ar
     3    15     6    1
     4    16    17   ar
     5    16    21    2
     6    17    18   ar
     7    17    23    1
     8    18    19   ar
     9    18    22    2
    10    19    20   ar
    11     6     7    1
    12     6    11    1
    13     7     8    1
    14     7     9    1
    15     8    13    1
    16     9    10    1
    17     9    12    1
    18    10    11    1
    19    10     5    1
    20    12    14    1
    21     5     4    1
    22     4     1    1
    23     1     2    2
    24     1     3    1
    25     1    24    1
    26    24    25    1
    27    25    26    2
    28    25    27    1
    29    25    28    1
    30    28    29    1
    31    29    30    1
    32    29    37    1
    33    30    31    1
    34    30    34    1
    35    31    32    1
    36    31    35    1
    37    32    33    1
    38    32    36    1
    39    33    41    1
    40    33    37    1
    41    41    42    1
    42    34    38    1
    43    35    39    1
    44    36    40    1
    45    42    43    1
@<TRIPOS>MOLECULE
GDU
 43 45 0 0 0
SMALL
GASTEIGER

@<TRIPOS>ATOM
      1 P          20.4869   71.4405   -3.0314 P.3     1  UNL1        0.2189
      2 O          20.4779   71.8733   -4.4464 O.2     1  UNL1       -0.5170
      3 O          20.4943   72.7354   -2.0743 O.3     1  UNL1       -0.4371
      4 O          19.1757   70.5587   -2.7312 O.3     1  UNL1       -0.3112
      5 C          18.0824   71.4704   -2.6117 C.3     1  UNL1        0.1811
      6 C          16.7872   70.4668   -5.8121 C.3     1  UNL1        0.2383
      7 C          17.0536   69.1349   -5.0651 C.3     1  UNL1        0.1895
      8 O          16.1310   68.1247   -5.4792 O.3     1  UNL1       -0.3779
      9 C          16.8076   69.5364   -3.5874 C.3     1  UNL1        0.1713
     10 C          16.9716   71.0676   -3.5833 C.3     1  UNL1        0.1764
     11 O          17.3230   71.4667   -4.9195 O.3     1  UNL1       -0.3308
     12 O          15.4880   69.1668   -3.1823 O.3     1  UNL1       -0.3794
     13 H          16.3499   67.3255   -4.9799 H       1  UNL1        0.2106
     14 H          15.4294   68.2051   -3.2627 H       1  UNL1        0.2105
     15 N          17.4911   70.4906   -7.0954 N.ar    1  UNL1       -0.2551
     16 C          16.7881   70.5382   -8.2407 C.ar    1  UNL1        0.3323
     17 N          17.4109   70.5646   -9.4338 N.ar    1  UNL1       -0.2743
     18 C          18.7558   70.5335   -9.4996 C.ar    1  UNL1        0.2626
     19 C          19.5092   70.4775   -8.3014 C.ar    1  UNL1        0.0795
     20 C          18.8594   70.4564   -7.1183 C.ar    1  UNL1        0.0869
     21 O          15.5743   70.5672   -8.1972 O.2     1  UNL1       -0.2464
     22 O          19.3203   70.5525  -10.5791 O.2     1  UNL1       -0.2670
     23 H          16.8878   70.6032  -10.2502 H       1  UNL1        0.1734
     24 O          21.8042   70.5588   -2.7493 O.3     1  UNL1       -0.2703
     25 P          23.0065   71.5919   -2.4713 P.3     1  UNL1        0.2208
     26 O          24.3008   70.9228   -2.7280 O.2     1  UNL1       -0.5170
     27 O          22.8574   72.8638   -3.4482 O.3     1  UNL1       -0.4371
     28 O          22.9498   72.0835   -0.9399 O.3     1  UNL1       -0.2858
     29 C          23.1319   70.9248   -0.1251 C.3     1  UNL1        0.2704
     30 C          21.9389   70.7744    0.8201 C.3     1  UNL1        0.1967
     31 C          21.8276   72.0328    1.6865 C.3     1  UNL1        0.1715
     32 C          23.1766   72.2764    2.3724 C.3     1  UNL1        0.1694
     33 C          24.2762   72.3149    1.3082 C.3     1  UNL1        0.1761
     34 O          20.7420   70.6090    0.0577 O.3     1  UNL1       -0.3775
     35 O          20.8109   71.8476    2.6737 O.3     1  UNL1       -0.3794
     36 O          23.4387   71.2220    3.2994 O.3     1  UNL1       -0.3794
     37 O          24.3336   71.0609    0.6298 O.3     1  UNL1       -0.3258
     38 H          20.8593   69.8115   -0.4762 H       1  UNL1        0.2106
     39 H          19.9858   71.6862    2.1988 H       1  UNL1        0.2105
     40 H          22.7203   71.2320    3.9452 H       1  UNL1        0.2105
     41 C          25.6235   72.5919    1.9793 C.3     1  UNL1        0.1693
     42 O          25.6879   73.9654    2.3671 O.3     1  UNL1       -0.3794
     43 H          26.5497   74.0979    2.7855 H       1  UNL1        0.2105
@<TRIPOS>BOND
     1    15    16   ar
     2    15    20   ar
     3    15     6    1
     4    16    17   ar
     5    16    21    2
     6    17    18   ar
     7    17    23    1
     8    18    19   ar
     9    18    22    2
    10    19    20   ar
    11     6     7    1
    12     6    11    1
    13     7     8    1
    14     7     9    1
    15     8    13    1
    16     9    10    1
    17     9    12    1
    18    10    11    1
    19    10     5    1
    20    12    14    1
    21     5     4    1
    22     4     1    1
    23     1     2    2
    24     1     3    1
    25     1    24    1
    26    24    25    1
    27    25    26    2
    28    25    27    1
    29    25    28    1
    30    28    29    1
    31    29    30    1
    32    29    37    1
    33    30    31    1
    34    30    34    1
    35    31    32    1
    36    31    35    1
    37    32    33    1
    38    32    36    1
    39    33    41    1
    40    33    37    1
    41    41    42    1
    42    34    38    1
    43    35    39    1
    44    36    40    1
    45    42    43    1
@<TRIPOS>MOLECULE
GDU
 43 45 0 0 0
SMALL
GASTEIGER

@<TRIPOS>ATOM
      1 P          20.5676   71.6062   -2.8365 P.3     1  UNL1        0.2189
      2 O          20.3868   70.9921   -1.5024 O.2     1  UNL1       -0.5170
      3 O          21.0538   70.4828   -3.8828 O.3     1  UNL1       -0.4371
      4 O          19.1722   72.2335   -3.3326 O.3     1  UNL1       -0.3112
      5 C          18.1387   71.5780   -2.5959 C.3     1  UNL1        0.1811
      6 C          16.8496   70.5040   -5.7758 C.3     1  UNL1        0.2383
      7 C          17.1700   69.1883   -5.0214 C.3     1  UNL1        0.1895
      8 O          16.2798   68.1429   -5.4189 O.3     1  UNL1       -0.3779
      9 C          16.9239   69.5925   -3.5445 C.3     1  UNL1        0.1713
     10 C          17.0337   71.1286   -3.5536 C.3     1  UNL1        0.1764
     11 O          17.3582   71.5292   -4.8961 O.3     1  UNL1       -0.3308
     12 O          15.6221   69.1798   -3.1238 O.3     1  UNL1       -0.3794
     13 H          16.5315   67.3560   -4.9157 H       1  UNL1        0.2106
     14 H          15.5967   68.2161   -3.1963 H       1  UNL1        0.2105
     15 N          17.5401   70.5425   -7.0661 N.ar    1  UNL1       -0.2551
     16 C          16.8251   70.5552   -8.2049 C.ar    1  UNL1        0.3323
     17 N          17.4353   70.5940   -9.4041 N.ar    1  UNL1       -0.2743
     18 C          18.7798   70.6109   -9.4827 C.ar    1  UNL1        0.2626
     19 C          19.5459   70.5921   -8.2915 C.ar    1  UNL1        0.0795
     20 C          18.9085   70.5574   -7.1020 C.ar    1  UNL1        0.0869
     21 O          15.6115   70.5408   -8.1499 O.2     1  UNL1       -0.2464
     22 O          19.3330   70.6412  -10.5678 O.2     1  UNL1       -0.2670
     23 H          16.9034   70.6071  -10.2157 H       1  UNL1        0.1734
     24 O          21.6778   72.7688   -2.7450 O.3     1  UNL1       -0.2703
     25 P          23.0851   72.0477   -2.4460 P.3     1  UNL1        0.2208
     26 O          22.8398   70.6855   -1.9231 O.2     1  UNL1       -0.5170
     27 O          23.9395   71.9532   -3.8081 O.3     1  UNL1       -0.4371
     28 O          23.9063   72.9019   -1.3570 O.3     1  UNL1       -0.2858
     29 C          22.9760   73.7941   -0.7421 C.3     1  UNL1        0.2704
     30 C          23.7386   74.8935   -0.0011 C.3     1  UNL1        0.1967
     31 C          24.6459   74.2486    1.0512 C.3     1  UNL1        0.1715
     32 C          23.7940   73.3340    1.9385 C.3     1  UNL1        0.1694
     33 C          23.0282   72.3508    1.0497 C.3     1  UNL1        0.1761
     34 O          24.5320   75.6349   -0.9296 O.3     1  UNL1       -0.3775
     35 O          25.2536   75.2661    1.8499 O.3     1  UNL1       -0.3794
     36 O          22.8718   74.1228    2.6917 O.3     1  UNL1       -0.3794
     37 O          22.1597   73.0690    0.1746 O.3     1  UNL1       -0.3258
     38 H          23.9219   76.0161   -1.5756 H       1  UNL1        0.2106
     39 H          25.7675   75.8223    1.2510 H       1  UNL1        0.2105
     40 H          23.3968   74.7291    3.2303 H       1  UNL1        0.2105
     41 C          22.2003   71.4101    1.9282 C.3     1  UNL1        0.1693
     42 O          21.6945   70.3376    1.1314 O.3     1  UNL1       -0.3794
     43 H          21.1806   69.7690    1.7212 H       1  UNL1        0.2105
@<TRIPOS>BOND
     1    15    16   ar
     2    15    20   ar
     3    15     6    1
     4    16    17   ar
     5    16    21    2
     6    17    18   ar
     7    17    23    1
     8    18    19   ar
     9    18    22    2
    10    19    20   ar
    11     6     7    1
    12     6    11    1
    13     7     8    1
    14     7     9    1
    15     8    13    1
    16     9    10    1
    17     9    12    1
    18    10    11    1
    19    10     5    1
    20    12    14    1
    21     5     4    1
    22     4     1    1
    23     1     2    2
    24     1     3    1
    25     1    24    1
    26    24    25    1
    27    25    26    2
    28    25    27    1
    29    25    28    1
    30    28    29    1
    31    29    30    1
    32    29    37    1
    33    30    31    1
    34    30    34    1
    35    31    32    1
    36    31    35    1
    37    32    33    1
    38    32    36    1
    39    33    41    1
    40    33    37    1
    41    41    42    1
    42    34    38    1
    43    35    39    1
    44    36    40    1
    45    42    43    1
@<TRIPOS>MOLECULE
GDU
 43 45 0 0 0
SMALL
GASTEIGER

@<TRIPOS>ATOM
      1 P          21.0946   71.8277   -2.1397 P.3     1  UNL1        0.2189
      2 O          21.6901   70.6782   -1.4231 O.2     1  UNL1       -0.5170
      3 O          22.2559   72.6507   -2.8927 O.3     1  UNL1       -0.4371
      4 O          20.0288   71.2938   -3.2195 O.3     1  UNL1       -0.3112
      5 C          18.9118   70.7909   -2.4846 C.3     1  UNL1        0.1811
      6 C          17.1582   70.5594   -5.6149 C.3     1  UNL1        0.2383
      7 C          17.1066   69.1236   -5.0329 C.3     1  UNL1        0.1895
      8 O          15.9157   68.4489   -5.4449 O.3     1  UNL1       -0.3779
      9 C          17.0897   69.3926   -3.5056 C.3     1  UNL1        0.1713
     10 C          17.6643   70.8148   -3.3697 C.3     1  UNL1        0.1764
     11 O          18.0108   71.2674   -4.6900 O.3     1  UNL1       -0.3308
     12 O          15.7533   69.3355   -3.0030 O.3     1  UNL1       -0.3794
     13 H          15.9452   67.5657   -5.0513 H       1  UNL1        0.2106
     14 H          15.4292   68.4401   -3.1700 H       1  UNL1        0.2105
     15 N          17.7445   70.5539   -6.9561 N.ar    1  UNL1       -0.2551
     16 C          16.9448   70.4605   -8.0332 C.ar    1  UNL1        0.3323
     17 N          17.4582   70.4567   -9.2775 N.ar    1  UNL1       -0.2743
     18 C          18.7897   70.5371   -9.4639 C.ar    1  UNL1        0.2626
     19 C          19.6447   70.6302   -8.3385 C.ar    1  UNL1        0.0795
     20 C          19.1032   70.6361   -7.1019 C.ar    1  UNL1        0.0869
     21 O          15.7416   70.3878   -7.8808 O.2     1  UNL1       -0.2464
     22 O          19.2557   70.5290  -10.5896 O.2     1  UNL1       -0.2670
     23 H          16.8658   70.3930  -10.0435 H       1  UNL1        0.1734
     24 O          20.3538   72.7917   -1.0840 O.3     1  UNL1       -0.2703
     25 P          20.8522   72.3496    0.3810 P.3     1  UNL1        0.2208
     26 O          19.9597   72.9380    1.4038 O.2     1  UNL1       -0.5170
     27 O          20.8161   70.7436    0.4979 O.3     1  UNL1       -0.4371
     28 O          22.3568   72.8699    0.6169 O.3     1  UNL1       -0.2858
     29 C          22.5043   73.0903    2.0202 C.3     1  UNL1        0.2704
     30 C          22.9637   74.5287    2.2642 C.3     1  UNL1        0.1967
     31 C          24.2929   74.7575    1.5380 C.3     1  UNL1        0.1715
     32 C          25.2837   73.6731    1.9762 C.3     1  UNL1        0.1694
     33 C          24.6486   72.2986    1.7521 C.3     1  UNL1        0.1761
     34 O          21.9806   75.4365    1.7635 O.3     1  UNL1       -0.3775
     35 O          24.8085   76.0470    1.8753 O.3     1  UNL1       -0.3794
     36 O          25.5948   73.8412    3.3601 O.3     1  UNL1       -0.3794
     37 O          23.4677   72.1791    2.5440 O.3     1  UNL1       -0.3258
     38 H          21.1611   75.2521    2.2424 H       1  UNL1        0.2106
     39 H          24.1498   76.6943    1.5934 H       1  UNL1        0.2105
     40 H          25.9857   74.7196    3.4544 H       1  UNL1        0.2105
     41 C          25.6432   71.2074    2.1545 C.3     1  UNL1        0.1693
     42 O          24.9359   70.1097    2.7340 O.3     1  UNL1       -0.3794
     43 H          25.5970   69.4453    2.9725 H       1  UNL1        0.2105
@<TRIPOS>BOND
     1    15    16   ar
     2    15    20   ar
     3    15     6    1
     4    16    17   ar
     5    16    21    2
     6    17    18   ar
     7    17    23    1
     8    18    19   ar
     9    18    22    2
    10    19    20   ar
    11     6     7    1
    12     6    11    1
    13     7     8    1
    14     7     9    1
    15     8    13    1
    16     9    10    1
    17     9    12    1
    18    10    11    1
    19    10     5    1
    20    12    14    1
    21     5     4    1
    22     4     1    1
    23     1     2    2
    24     1     3    1
    25     1    24    1
    26    24    25    1
    27    25    26    2
    28    25    27    1
    29    25    28    1
    30    28    29    1
    31    29    30    1
    32    29    37    1
    33    30    31    1
    34    30    34    1
    35    31    32    1
    36    31    35    1
    37    32    33    1
    38    32    36    1
    39    33    41    1
    40    33    37    1
    41    41    42    1
    42    34    38    1
    43    35    39    1
    44    36    40    1
    45    42    43    1
@<TRIPOS>MOLECULE
GDU
 43 45 0 0 0
SMALL
GASTEIGER

@<TRIPOS>ATOM
      1 P          20.7215   71.9877   -1.7302 P.3     1  UNL1        0.2189
      2 O          20.9707   73.3784   -1.2905 O.2     1  UNL1       -0.5170
      3 O          21.4509   70.9670   -0.7207 O.3     1  UNL1       -0.4371
      4 O          19.1389   71.7007   -1.7329 O.3     1  UNL1       -0.3112
      5 C          18.9390   70.4913   -2.4663 C.3     1  UNL1        0.1811
      6 C          17.1834   70.5095   -5.6039 C.3     1  UNL1        0.2383
      7 C          17.0504   69.0524   -5.0921 C.3     1  UNL1        0.1895
      8 O          15.8249   68.4658   -5.5362 O.3     1  UNL1       -0.3779
      9 C          17.0445   69.2477   -3.5536 C.3     1  UNL1        0.1713
     10 C          17.6971   70.6275   -3.3490 C.3     1  UNL1        0.1764
     11 O          18.0716   71.1234   -4.6459 O.3     1  UNL1       -0.3308
     12 O          15.7057   69.2410   -3.0542 O.3     1  UNL1       -0.3794
     13 H          15.8041   67.5643   -5.1858 H       1  UNL1        0.2106
     14 H          15.3327   68.3741   -3.2644 H       1  UNL1        0.2105
     15 N          17.7720   70.5362   -6.9439 N.ar    1  UNL1       -0.2551
     16 C          16.9744   70.4639   -8.0242 C.ar    1  UNL1        0.3323
     17 N          17.4900   70.4900   -9.2673 N.ar    1  UNL1       -0.2743
     18 C          18.8215   70.5794   -9.4496 C.ar    1  UNL1        0.2626
     19 C          19.6743   70.6504   -8.3209 C.ar    1  UNL1        0.0795
     20 C          19.1307   70.6266   -7.0854 C.ar    1  UNL1        0.0869
     21 O          15.7713   70.3834   -7.8756 O.2     1  UNL1       -0.2464
     22 O          19.2894   70.5982  -10.5744 O.2     1  UNL1       -0.2670
     23 H          16.8992   70.4412  -10.0357 H       1  UNL1        0.1734
     24 O          21.3080   71.7822   -3.2155 O.3     1  UNL1       -0.2703
     25 P          22.7095   72.5709   -3.2771 P.3     1  UNL1        0.2208
     26 O          23.0096   73.1474   -1.9479 O.2     1  UNL1       -0.5170
     27 O          23.8821   71.5490   -3.6954 O.3     1  UNL1       -0.4371
     28 O          22.6146   73.7518   -4.3663 O.3     1  UNL1       -0.2858
     29 C          21.5594   73.4046   -5.2639 C.3     1  UNL1        0.2704
     30 C          22.1168   73.2854   -6.6832 C.3     1  UNL1        0.1967
     31 C          22.7501   74.6214   -7.0839 C.3     1  UNL1        0.1715
     32 C          21.7161   75.7345   -6.8806 C.3     1  UNL1        0.1694
     33 C          21.1901   75.6690   -5.4446 C.3     1  UNL1        0.1761
     34 O          23.1048   72.2542   -6.7244 O.3     1  UNL1       -0.3775
     35 O          23.1438   74.5734   -8.4570 O.3     1  UNL1       -0.3794
     36 O          20.6363   75.5571   -7.7985 O.3     1  UNL1       -0.3794
     37 O          20.5518   74.4124   -5.2226 O.3     1  UNL1       -0.3258
     38 H          22.6646   71.4354   -6.4588 H       1  UNL1        0.2106
     39 H          23.7828   73.8544   -8.5400 H       1  UNL1        0.2105
     40 H          21.0141   75.5997   -8.6867 H       1  UNL1        0.2105
     41 C          20.1817   76.7981   -5.2206 C.3     1  UNL1        0.1693
     42 O          20.6852   77.6957   -4.2297 O.3     1  UNL1       -0.3794
     43 H          20.0221   78.3910   -4.1191 H       1  UNL1        0.2105
@<TRIPOS>BOND
     1    15    16   ar
     2    15    20   ar
     3    15     6    1
     4    16    17   ar
     5    16    21    2
     6    17    18   ar
     7    17    23    1
     8    18    19   ar
     9    18    22    2
    10    19    20   ar
    11     6     7    1
    12     6    11    1
    13     7     8    1
    14     7     9    1
    15     8    13    1
    16     9    10    1
    17     9    12    1
    18    10    11    1
    19    10     5    1
    20    12    14    1
    21     5     4    1
    22     4     1    1
    23     1     2    2
    24     1     3    1
    25     1    24    1
    26    24    25    1
    27    25    26    2
    28    25    27    1
    29    25    28    1
    30    28    29    1
    31    29    30    1
    32    29    37    1
    33    30    31    1
    34    30    34    1
    35    31    32    1
    36    31    35    1
    37    32    33    1
    38    32    36    1
    39    33    41    1
    40    33    37    1
    41    41    42    1
    42    34    38    1
    43    35    39    1
    44    36    40    1
    45    42    43    1
@<TRIPOS>MOLECULE
GDU
 43 45 0 0 0
SMALL
GASTEIGER

@<TRIPOS>ATOM
      1 P          23.4806   72.1712   -3.3541 P.3     1  UNL1        0.2189
      2 O          24.2605   72.9218   -4.3630 O.2     1  UNL1       -0.5170
      3 O          24.2387   70.7938   -3.0060 O.3     1  UNL1       -0.4371
      4 O          23.3365   73.0566   -2.0191 O.3     1  UNL1       -0.3112
      5 C          21.9685   72.9770   -1.6155 C.3     1  UNL1        0.1811
      6 C          23.2296   72.0348    1.6170 C.3     1  UNL1        0.2383
      7 C          22.4793   73.3683    1.8656 C.3     1  UNL1        0.1895
      8 O          21.9292   73.4057    3.1844 O.3     1  UNL1       -0.3779
      9 C          21.3550   73.3122    0.7988 C.3     1  UNL1        0.1713
     10 C          21.8779   72.3064   -0.2435 C.3     1  UNL1        0.1764
     11 O          23.1858   71.8860    0.1820 O.3     1  UNL1       -0.3308
     12 O          20.1353   72.8497    1.3822 O.3     1  UNL1       -0.3794
     13 H          21.4783   74.2569    3.2745 H       1  UNL1        0.2106
     14 H          19.8915   73.4890    2.0653 H       1  UNL1        0.2105
     15 N          24.6139   72.1245    2.0843 N.ar    1  UNL1       -0.2551
     16 C          25.3480   71.0053    2.2135 C.ar    1  UNL1        0.3323
     17 N          26.6243   71.0605    2.6377 N.ar    1  UNL1       -0.2743
     18 C          27.1862   72.2439    2.9506 C.ar    1  UNL1        0.2626
     19 C          26.4232   73.4306    2.8248 C.ar    1  UNL1        0.0795
     20 C          25.1468   73.3471    2.3931 C.ar    1  UNL1        0.0869
     21 O          24.8549   69.9305    1.9346 O.2     1  UNL1       -0.2464
     22 O          28.3399   72.2944    3.3392 O.2     1  UNL1       -0.2670
     23 H          27.1407   70.2431    2.7210 H       1  UNL1        0.1734
     24 O          22.0183   71.8434   -3.9427 O.3     1  UNL1       -0.2703
     25 P          21.8466   72.7205   -5.2810 P.3     1  UNL1        0.2208
     26 O          21.9928   74.1556   -4.9522 O.2     1  UNL1       -0.5170
     27 O          22.9762   72.2973   -6.3483 O.3     1  UNL1       -0.4371
     28 O          20.3893   72.4592   -5.9119 O.3     1  UNL1       -0.2858
     29 C          20.3800   71.1142   -6.3921 C.3     1  UNL1        0.2704
     30 C          19.9309   71.0986   -7.8541 C.3     1  UNL1        0.1967
     31 C          18.5334   71.7178   -7.9530 C.3     1  UNL1        0.1715
     32 C          17.6037   70.9876   -6.9773 C.3     1  UNL1        0.1694
     33 C          18.2289   71.0135   -5.5803 C.3     1  UNL1        0.1761
     34 O          20.8487   71.8560   -8.6448 O.3     1  UNL1       -0.3775
     35 O          18.0394   71.5775   -9.2867 O.3     1  UNL1       -0.3794
     36 O          17.4304   69.6355   -7.4035 O.3     1  UNL1       -0.3794
     37 O          19.4843   70.3356   -5.6022 O.3     1  UNL1       -0.3258
     38 H          21.7140   71.4357   -8.5472 H       1  UNL1        0.2106
     39 H          18.6592   72.0399   -9.8649 H       1  UNL1        0.2105
     40 H          17.0409   69.6683   -8.2870 H       1  UNL1        0.2105
     41 C          17.2920   70.3166   -4.5911 C.3     1  UNL1        0.1693
     42 O          16.0404   71.0045   -4.5564 O.3     1  UNL1       -0.3794
     43 H          15.4801   70.5344   -3.9235 H       1  UNL1        0.2105
@<TRIPOS>BOND
     1    15    16   ar
     2    15    20   ar
     3    15     6    1
     4    16    17   ar
     5    16    21    2
     6    17    18   ar
     7    17    23    1
     8    18    19   ar
     9    18    22    2
    10    19    20   ar
    11     6     7    1
    12     6    11    1
    13     7     8    1
    14     7     9    1
    15     8    13    1
    16     9    10    1
    17     9    12    1
    18    10    11    1
    19    10     5    1
    20    12    14    1
    21     5     4    1
    22     4     1    1
    23     1     2    2
    24     1     3    1
    25     1    24    1
    26    24    25    1
    27    25    26    2
    28    25    27    1
    29    25    28    1
    30    28    29    1
    31    29    30    1
    32    29    37    1
    33    30    31    1
    34    30    34    1
    35    31    32    1
    36    31    35    1
    37    32    33    1
    38    32    36    1
    39    33    41    1
    40    33    37    1
    41    41    42    1
    42    34    38    1
    43    35    39    1
    44    36    40    1
    45    42    43    1
@<TRIPOS>MOLECULE
GDU
 43 45 0 0 0
SMALL
GASTEIGER

@<TRIPOS>ATOM
      1 P          19.8187   72.7781   -2.4007 P.3     1  UNL1        0.2189
      2 O          19.4017   73.9670   -3.1768 O.2     1  UNL1       -0.5170
      3 O          19.1850   72.8531   -0.9223 O.3     1  UNL1       -0.4371
      4 O          19.3016   71.4462   -3.1393 O.3     1  UNL1       -0.3112
      5 C          18.1070   71.0393   -2.4701 C.3     1  UNL1        0.1811
      6 C          16.7483   70.5634   -5.7648 C.3     1  UNL1        0.2383
      7 C          16.7909   69.1401   -5.1521 C.3     1  UNL1        0.1895
      8 O          15.7348   68.3293   -5.6722 O.3     1  UNL1       -0.3779
      9 C          16.5749   69.4291   -3.6438 C.3     1  UNL1        0.1713
     10 C          16.9705   70.9089   -3.4859 C.3     1  UNL1        0.1764
     11 O          17.4096   71.3771   -4.7728 O.3     1  UNL1       -0.3308
     12 O          15.2053   69.2297   -3.2881 O.3     1  UNL1       -0.3794
     13 H          15.8175   67.4612   -5.2533 H       1  UNL1        0.2106
     14 H          15.0024   68.3010   -3.4644 H       1  UNL1        0.2105
     15 N          17.4771   70.6031   -7.0337 N.ar    1  UNL1       -0.2551
     16 C          16.7994   70.5498   -8.1939 C.ar    1  UNL1        0.3323
     17 N          17.4451   70.5881   -9.3744 N.ar    1  UNL1       -0.2743
     18 C          18.7890   70.6710   -9.4119 C.ar    1  UNL1        0.2626
     19 C          19.5164   70.7221   -8.1976 C.ar    1  UNL1        0.0795
     20 C          18.8436   70.6863   -7.0278 C.ar    1  UNL1        0.0869
     21 O          15.5869   70.4754   -8.1760 O.2     1  UNL1       -0.2464
     22 O          19.3747   70.7010  -10.4799 O.2     1  UNL1       -0.2670
     23 H          16.9397   70.5530  -10.2021 H       1  UNL1        0.1734
     24 O          21.4249   72.7447   -2.2936 O.3     1  UNL1       -0.2703
     25 P          21.7909   71.7597   -1.0747 P.3     1  UNL1        0.2208
     26 O          20.7241   70.7458   -0.9228 O.2     1  UNL1       -0.5170
     27 O          23.1902   71.0236   -1.3815 O.3     1  UNL1       -0.4371
     28 O          21.9207   72.6114    0.2846 O.3     1  UNL1       -0.2858
     29 C          21.3672   71.8112    1.3301 C.3     1  UNL1        0.2704
     30 C          20.7536   72.7200    2.3964 C.3     1  UNL1        0.1967
     31 C          21.8405   73.6498    2.9446 C.3     1  UNL1        0.1715
     32 C          23.0230   72.7963    3.4169 C.3     1  UNL1        0.1694
     33 C          23.4660   71.8825    2.2716 C.3     1  UNL1        0.1761
     34 O          19.7044   73.4973    1.8166 O.3     1  UNL1       -0.3775
     35 O          21.3197   74.4023    4.0423 O.3     1  UNL1       -0.3794
     36 O          22.6244   72.0064    4.5381 O.3     1  UNL1       -0.3794
     37 O          22.3956   71.0114    1.9093 O.3     1  UNL1       -0.3258
     38 H          19.0481   72.8726    1.4791 H       1  UNL1        0.2106
     39 H          20.5736   74.9125    3.7029 H       1  UNL1        0.2105
     40 H          22.3491   72.6216    5.2302 H       1  UNL1        0.2105
     41 C          24.6687   71.0500    2.7218 C.3     1  UNL1        0.1693
     42 O          24.6991   69.8238    1.9894 O.3     1  UNL1       -0.3794
     43 H          25.4700   69.3303    2.3016 H       1  UNL1        0.2105
@<TRIPOS>BOND
     1    15    16   ar
     2    15    20   ar
     3    15     6    1
     4    16    17   ar
     5    16    21    2
     6    17    18   ar
     7    17    23    1
     8    18    19   ar
     9    18    22    2
    10    19    20   ar
    11     6     7    1
    12     6    11    1
    13     7     8    1
    14     7     9    1
    15     8    13    1
    16     9    10    1
    17     9    12    1
    18    10    11    1
    19    10     5    1
    20    12    14    1
    21     5     4    1
    22     4     1    1
    23     1     2    2
    24     1     3    1
    25     1    24    1
    26    24    25    1
    27    25    26    2
    28    25    27    1
    29    25    28    1
    30    28    29    1
    31    29    30    1
    32    29    37    1
    33    30    31    1
    34    30    34    1
    35    31    32    1
    36    31    35    1
    37    32    33    1
    38    32    36    1
    39    33    41    1
    40    33    37    1
    41    41    42    1
    42    34    38    1
    43    35    39    1
    44    36    40    1
    45    42    43    1
@<TRIPOS>MOLECULE
GDU
 43 45 0 0 0
SMALL
GASTEIGER

@<TRIPOS>ATOM
      1 P          20.4792   71.4801   -2.2325 P.3     1  UNL1        0.2189
      2 O          20.8821   72.8227   -1.7586 O.2     1  UNL1       -0.5170
      3 O          20.0014   70.5896   -0.9789 O.3     1  UNL1       -0.4371
      4 O          19.2689   71.6219   -3.2823 O.3     1  UNL1       -0.3112
      5 C          18.0736   71.2654   -2.5863 C.3     1  UNL1        0.1811
      6 C          16.7506   70.5415   -5.8502 C.3     1  UNL1        0.2383
      7 C          16.8642   69.1578   -5.1607 C.3     1  UNL1        0.1895
      8 O          15.8525   68.2667   -5.6358 O.3     1  UNL1       -0.3779
      9 C          16.6293   69.5171   -3.6704 C.3     1  UNL1        0.1713
     10 C          16.9482   71.0217   -3.5934 C.3     1  UNL1        0.1764
     11 O          17.3665   71.4409   -4.9040 O.3     1  UNL1       -0.3308
     12 O          15.2707   69.2675   -3.3044 O.3     1  UNL1       -0.3794
     13 H          15.9783   67.4282   -5.1702 H       1  UNL1        0.2106
     14 H          15.1162   68.3214   -3.4298 H       1  UNL1        0.2105
     15 N          17.4800   70.5493   -7.1193 N.ar    1  UNL1       -0.2551
     16 C          16.7999   70.5520   -8.2793 C.ar    1  UNL1        0.3323
     17 N          17.4465   70.5627   -9.4599 N.ar    1  UNL1       -0.2743
     18 C          18.7928   70.5609   -9.4979 C.ar    1  UNL1        0.2626
     19 C          19.5224   70.5523   -8.2839 C.ar    1  UNL1        0.0795
     20 C          18.8490   70.5459   -7.1138 C.ar    1  UNL1        0.0869
     21 O          15.5851   70.5542   -8.2610 O.2     1  UNL1       -0.2464
     22 O          19.3789   70.5658  -10.5661 O.2     1  UNL1       -0.2670
     23 H          16.9396   70.5689  -10.2874 H       1  UNL1        0.1734
     24 O          21.7322   70.7667   -2.9492 O.3     1  UNL1       -0.2703
     25 P          23.0621   71.4391   -2.3417 P.3     1  UNL1        0.2208
     26 O          23.0753   71.2655   -0.8724 O.2     1  UNL1       -0.5170
     27 O          24.3606   70.7288   -2.9771 O.3     1  UNL1       -0.4371
     28 O          23.0822   73.0084   -2.6978 O.3     1  UNL1       -0.2858
     29 C          24.1630   73.2135   -3.6086 C.3     1  UNL1        0.2704
     30 C          24.5429   74.6950   -3.6227 C.3     1  UNL1        0.1967
     31 C          23.3207   75.5191   -4.0394 C.3     1  UNL1        0.1715
     32 C          22.7888   74.9694   -5.3678 C.3     1  UNL1        0.1694
     33 C          22.5399   73.4663   -5.2205 C.3     1  UNL1        0.1761
     34 O          24.9678   75.0926   -2.3179 O.3     1  UNL1       -0.3775
     35 O          23.6971   76.8884   -4.1999 O.3     1  UNL1       -0.3794
     36 O          23.7491   75.2008   -6.3994 O.3     1  UNL1       -0.3794
     37 O          23.7658   72.8031   -4.9149 O.3     1  UNL1       -0.3258
     38 H          25.7324   74.5444   -2.0944 H       1  UNL1        0.2106
     39 H          24.0355   77.1876   -3.3465 H       1  UNL1        0.2105
     40 H          23.8781   76.1568   -6.4524 H       1  UNL1        0.2105
     41 C          21.9760   72.9136   -6.5314 C.3     1  UNL1        0.1693
     42 O          23.0516   72.4871   -7.3694 O.3     1  UNL1       -0.3794
     43 H          22.6545   72.1459   -8.1825 H       1  UNL1        0.2105
@<TRIPOS>BOND
     1    15    16   ar
     2    15    20   ar
     3    15     6    1
     4    16    17   ar
     5    16    21    2
     6    17    18   ar
     7    17    23    1
     8    18    19   ar
     9    18    22    2
    10    19    20   ar
    11     6     7    1
    12     6    11    1
    13     7     8    1
    14     7     9    1
    15     8    13    1
    16     9    10    1
    17     9    12    1
    18    10    11    1
    19    10     5    1
    20    12    14    1
    21     5     4    1
    22     4     1    1
    23     1     2    2
    24     1     3    1
    25     1    24    1
    26    24    25    1
    27    25    26    2
    28    25    27    1
    29    25    28    1
    30    28    29    1
    31    29    30    1
    32    29    37    1
    33    30    31    1
    34    30    34    1
    35    31    32    1
    36    31    35    1
    37    32    33    1
    38    32    36    1
    39    33    41    1
    40    33    37    1
    41    41    42    1
    42    34    38    1
    43    35    39    1
    44    36    40    1
    45    42    43    1
@<TRIPOS>MOLECULE
GDU
 43 45 0 0 0
SMALL
GASTEIGER

@<TRIPOS>ATOM
      1 P          16.3467   69.7617   -2.5649 P.3     1  UNL1        0.2189
      2 O          17.1309   68.7165   -1.8706 O.2     1  UNL1       -0.5170
      3 O          15.9672   69.2535   -4.0450 O.3     1  UNL1       -0.4371
      4 O          14.9998   70.0606   -1.7383 O.3     1  UNL1       -0.3112
      5 C          14.8337   68.9837   -0.8145 C.3     1  UNL1        0.1811
      6 C          12.0822   67.9242    1.2432 C.3     1  UNL1        0.2383
      7 C          12.3620   69.3825    1.6883 C.3     1  UNL1        0.1895
      8 O          11.1611   70.0206    2.1286 O.3     1  UNL1       -0.3779
      9 C          12.8829   70.0279    0.3778 C.3     1  UNL1        0.1713
     10 C          13.3515   68.8300   -0.4689 C.3     1  UNL1        0.1764
     11 O          13.1541   67.6427    0.3184 O.3     1  UNL1       -0.3308
     12 O          11.8317   70.7353   -0.2828 O.3     1  UNL1       -0.3794
     13 H          11.4030   70.9199    2.3905 H       1  UNL1        0.2106
     14 H          11.5418   71.4334    0.3200 H       1  UNL1        0.2105
     15 N          12.1363   67.0137    2.3881 N.ar    1  UNL1       -0.2551
     16 C          13.3257   66.5691    2.8309 C.ar    1  UNL1        0.3323
     17 N          13.4034   65.7341    3.8838 N.ar    1  UNL1       -0.2743
     18 C          12.2837   65.3207    4.5079 C.ar    1  UNL1        0.2626
     19 C          11.0235   65.7763    4.0489 C.ar    1  UNL1        0.0795
     20 C          10.9744   66.6167    2.9934 C.ar    1  UNL1        0.0869
     21 O          14.3444   66.9337    2.2783 O.2     1  UNL1       -0.2464
     22 O          12.3527   64.5612    5.4581 O.2     1  UNL1       -0.2670
     23 H          14.2705   65.4266    4.1926 H       1  UNL1        0.1734
     24 O          17.2235   71.1081   -2.6697 O.3     1  UNL1       -0.2703
     25 P          18.4638   70.7828   -3.6421 P.3     1  UNL1        0.2208
     26 O          19.3661   71.9540   -3.6990 O.2     1  UNL1       -0.5170
     27 O          19.2718   69.5107   -3.0736 O.3     1  UNL1       -0.4371
     28 O          17.9170   70.4531   -5.1193 O.3     1  UNL1       -0.2858
     29 C          17.8904   71.6876   -5.8371 C.3     1  UNL1        0.2704
     30 C          16.6390   71.7393   -6.7150 C.3     1  UNL1        0.1967
     31 C          16.6591   70.5517   -7.6822 C.3     1  UNL1        0.1715
     32 C          17.9901   70.5613   -8.4424 C.3     1  UNL1        0.1694
     33 C          19.1399   70.5969   -7.4326 C.3     1  UNL1        0.1761
     34 O          15.4735   71.6684   -5.8917 O.3     1  UNL1       -0.3775
     35 O          15.5748   70.6666   -8.6061 O.3     1  UNL1       -0.3794
     36 O          18.0512   71.7135   -9.2842 O.3     1  UNL1       -0.3794
     37 O          19.0569   71.7875   -6.6506 O.3     1  UNL1       -0.3258
     38 H          15.5062   72.4290   -5.2957 H       1  UNL1        0.2106
     39 H          14.7620   70.6685   -8.0849 H       1  UNL1        0.2105
     40 H          17.3076   71.6516   -9.8979 H       1  UNL1        0.2105
     41 C          20.4746   70.5722   -8.1809 C.3     1  UNL1        0.1693
     42 O          20.8414   71.9045   -8.5432 O.3     1  UNL1       -0.3794
     43 H          21.6859   71.8450   -9.0107 H       1  UNL1        0.2105
@<TRIPOS>BOND
     1    15    16   ar
     2    15    20   ar
     3    15     6    1
     4    16    17   ar
     5    16    21    2
     6    17    18   ar
     7    17    23    1
     8    18    19   ar
     9    18    22    2
    10    19    20   ar
    11     6     7    1
    12     6    11    1
    13     7     8    1
    14     7     9    1
    15     8    13    1
    16     9    10    1
    17     9    12    1
    18    10    11    1
    19    10     5    1
    20    12    14    1
    21     5     4    1
    22     4     1    1
    23     1     2    2
    24     1     3    1
    25     1    24    1
    26    24    25    1
    27    25    26    2
    28    25    27    1
    29    25    28    1
    30    28    29    1
    31    29    30    1
    32    29    37    1
    33    30    31    1
    34    30    34    1
    35    31    32    1
    36    31    35    1
    37    32    33    1
    38    32    36    1
    39    33    41    1
    40    33    37    1
    41    41    42    1
    42    34    38    1
    43    35    39    1
    44    36    40    1
    45    42    43    1
@<TRIPOS>MOLECULE
GDU
 43 45 0 0 0
SMALL
GASTEIGER

@<TRIPOS>ATOM
      1 P          16.7621   69.7551   -2.5802 P.3     1  UNL1        0.2189
      2 O          15.9698   70.1415   -3.7687 O.2     1  UNL1       -0.5170
      3 O          17.6102   68.4265   -2.9095 O.3     1  UNL1       -0.4371
      4 O          17.7662   70.9503   -2.1924 O.3     1  UNL1       -0.3112
      5 C          19.0800   70.3909   -2.1540 C.3     1  UNL1        0.1811
      6 C          20.0665   71.5953   -5.3949 C.3     1  UNL1        0.2383
      7 C          19.2124   72.7425   -4.7969 C.3     1  UNL1        0.1895
      8 O          19.6544   74.0128   -5.2808 O.3     1  UNL1       -0.3779
      9 C          19.4949   72.6002   -3.2786 C.3     1  UNL1        0.1713
     10 C          19.9878   71.1494   -3.1239 C.3     1  UNL1        0.1764
     11 O          19.9351   70.5358   -4.4235 O.3     1  UNL1       -0.3308
     12 O          20.5044   73.5249   -2.8694 O.3     1  UNL1       -0.3794
     13 H          19.0848   74.6800   -4.8731 H       1  UNL1        0.2106
     14 H          20.1604   74.4112   -3.0454 H       1  UNL1        0.2105
     15 N          19.5337   71.1749   -6.6919 N.ar    1  UNL1       -0.2551
     16 C          20.1947   71.4926   -7.8191 C.ar    1  UNL1        0.3323
     17 N          19.7282   71.1152   -9.0240 N.ar    1  UNL1       -0.2743
     18 C          18.5800   70.4178   -9.1206 C.ar    1  UNL1        0.2626
     19 C          17.8700   70.0810   -7.9422 C.ar    1  UNL1        0.0795
     20 C          18.3624   70.4684   -6.7464 C.ar    1  UNL1        0.0869
     21 O          21.2321   72.1209   -7.7477 O.2     1  UNL1       -0.2464
     22 O          18.1544   70.0798  -10.2112 O.2     1  UNL1       -0.2670
     23 H          20.2205   71.3494   -9.8268 H       1  UNL1        0.1734
     24 O          15.7697   69.4645   -1.3461 O.3     1  UNL1       -0.2703
     25 P          14.8196   70.7550   -1.1974 P.3     1  UNL1        0.2208
     26 O          15.6127   71.8950   -0.6871 O.2     1  UNL1       -0.5170
     27 O          14.2004   71.1336   -2.6353 O.3     1  UNL1       -0.4371
     28 O          13.6253   70.4279   -0.1695 O.3     1  UNL1       -0.2858
     29 C          13.0032   69.2257   -0.6250 C.3     1  UNL1        0.2704
     30 C          11.4915   69.4386   -0.7186 C.3     1  UNL1        0.1967
     31 C          10.9574   69.8346    0.6614 C.3     1  UNL1        0.1715
     32 C          11.4060   68.7817    1.6811 C.3     1  UNL1        0.1694
     33 C          12.9256   68.6200    1.5939 C.3     1  UNL1        0.1761
     34 O          11.2118   70.4780   -1.6581 O.3     1  UNL1       -0.3775
     35 O           9.5299   69.8935    0.6249 O.3     1  UNL1       -0.3794
     36 O          10.7708   67.5355    1.3921 O.3     1  UNL1       -0.3794
     37 O          13.2877   68.1695    0.2893 O.3     1  UNL1       -0.3258
     38 H          11.5710   70.1897   -2.5082 H       1  UNL1        0.2106
     39 H           9.2940   70.5572   -0.0356 H       1  UNL1        0.2105
     40 H           9.8184   67.6861    1.4528 H       1  UNL1        0.2105
     41 C          13.3882   67.5954    2.6322 C.3     1  UNL1        0.1693
     42 O          14.6742   67.0933    2.2645 O.3     1  UNL1       -0.3794
     43 H          14.9291   66.4530    2.9430 H       1  UNL1        0.2105
@<TRIPOS>BOND
     1    15    16   ar
     2    15    20   ar
     3    15     6    1
     4    16    17   ar
     5    16    21    2
     6    17    18   ar
     7    17    23    1
     8    18    19   ar
     9    18    22    2
    10    19    20   ar
    11     6     7    1
    12     6    11    1
    13     7     8    1
    14     7     9    1
    15     8    13    1
    16     9    10    1
    17     9    12    1
    18    10    11    1
    19    10     5    1
    20    12    14    1
    21     5     4    1
    22     4     1    1
    23     1     2    2
    24     1     3    1
    25     1    24    1
    26    24    25    1
    27    25    26    2
    28    25    27    1
    29    25    28    1
    30    28    29    1
    31    29    30    1
    32    29    37    1
    33    30    31    1
    34    30    34    1
    35    31    32    1
    36    31    35    1
    37    32    33    1
    38    32    36    1
    39    33    41    1
    40    33    37    1
    41    41    42    1
    42    34    38    1
    43    35    39    1
    44    36    40    1
    45    42    43    1
@<TRIPOS>MOLECULE
GDU
 43 45 0 0 0
SMALL
GASTEIGER

@<TRIPOS>ATOM
      1 P          20.8319   71.7932   -2.8044 P.3     1  UNL1        0.2189
      2 O          22.0217   71.7098   -3.6802 O.2     1  UNL1       -0.5170
      3 O          20.1248   73.2273   -2.9950 O.3     1  UNL1       -0.4371
      4 O          19.7949   70.6274   -3.1948 O.3     1  UNL1       -0.3112
      5 C          18.6052   70.8620   -2.4398 C.3     1  UNL1        0.1811
      6 C          16.9825   70.5299   -5.6311 C.3     1  UNL1        0.2383
      7 C          16.9913   69.0937   -5.0477 C.3     1  UNL1        0.1895
      8 O          15.8564   68.3523   -5.5009 O.3     1  UNL1       -0.3779
      9 C          16.9037   69.3620   -3.5227 C.3     1  UNL1        0.1713
     10 C          17.3913   70.8147   -3.3696 C.3     1  UNL1        0.1764
     11 O          17.7594   71.2856   -4.6777 O.3     1  UNL1       -0.3308
     12 O          15.5553   69.2294   -3.0688 O.3     1  UNL1       -0.3794
     13 H          15.9217   67.4723   -5.1043 H       1  UNL1        0.2106
     14 H          15.2888   68.3169   -3.2452 H       1  UNL1        0.2105
     15 N          17.6167   70.5570   -6.9502 N.ar    1  UNL1       -0.2551
     16 C          16.8586   70.4602   -8.0566 C.ar    1  UNL1        0.3323
     17 N          17.4163   70.4861   -9.2814 N.ar    1  UNL1       -0.2743
     18 C          18.7514   70.6002   -9.4184 C.ar    1  UNL1        0.2626
     19 C          19.5630   70.6973   -8.2616 C.ar    1  UNL1        0.0795
     20 C          18.9774   70.6730   -7.0454 C.ar    1  UNL1        0.0869
     21 O          15.6528   70.3573   -7.9489 O.2     1  UNL1       -0.2464
     22 O          19.2576   70.6189  -10.5265 O.2     1  UNL1       -0.2670
     23 H          16.8536   70.4193  -10.0692 H       1  UNL1        0.1734
     24 O          21.2838   71.6191   -1.2688 O.3     1  UNL1       -0.2703
     25 P          21.4378   73.0996   -0.6570 P.3     1  UNL1        0.2208
     26 O          22.1899   73.9496   -1.6062 O.2     1  UNL1       -0.5170
     27 O          19.9775   73.7330   -0.4111 O.3     1  UNL1       -0.4371
     28 O          22.2308   73.0237    0.7414 O.3     1  UNL1       -0.2858
     29 C          23.6240   73.0804    0.4320 C.3     1  UNL1        0.2704
     30 C          24.2796   71.7455    0.7891 C.3     1  UNL1        0.1967
     31 C          24.0677   71.4692    2.2808 C.3     1  UNL1        0.1715
     32 C          24.5706   72.6772    3.0792 C.3     1  UNL1        0.1694
     33 C          23.8908   73.9421    2.5492 C.3     1  UNL1        0.1761
     34 O          23.6861   70.6994    0.0179 O.3     1  UNL1       -0.3775
     35 O          24.7982   70.3013    2.6612 O.3     1  UNL1       -0.3794
     36 O          25.9865   72.7920    2.9309 O.3     1  UNL1       -0.3794
     37 O          24.2320   74.1330    1.1770 O.3     1  UNL1       -0.3258
     38 H          23.8371   70.9180   -0.9117 H       1  UNL1        0.2106
     39 H          24.4580   69.5722    2.1274 H       1  UNL1        0.2105
     40 H          26.3708   71.9735    3.2710 H       1  UNL1        0.2105
     41 C          24.3604   75.1504    3.3626 C.3     1  UNL1        0.1693
     42 O          24.6213   74.7457    4.7077 O.3     1  UNL1       -0.3794
     43 H          24.9147   75.5339    5.1852 H       1  UNL1        0.2105
@<TRIPOS>BOND
     1    15    16   ar
     2    15    20   ar
     3    15     6    1
     4    16    17   ar
     5    16    21    2
     6    17    18   ar
     7    17    23    1
     8    18    19   ar
     9    18    22    2
    10    19    20   ar
    11     6     7    1
    12     6    11    1
    13     7     8    1
    14     7     9    1
    15     8    13    1
    16     9    10    1
    17     9    12    1
    18    10    11    1
    19    10     5    1
    20    12    14    1
    21     5     4    1
    22     4     1    1
    23     1     2    2
    24     1     3    1
    25     1    24    1
    26    24    25    1
    27    25    26    2
    28    25    27    1
    29    25    28    1
    30    28    29    1
    31    29    30    1
    32    29    37    1
    33    30    31    1
    34    30    34    1
    35    31    32    1
    36    31    35    1
    37    32    33    1
    38    32    36    1
    39    33    41    1
    40    33    37    1
    41    41    42    1
    42    34    38    1
    43    35    39    1
    44    36    40    1
    45    42    43    1
@<TRIPOS>MOLECULE
GDU
 43 45 0 0 0
SMALL
GASTEIGER

@<TRIPOS>ATOM
      1 P          22.9610   71.7615   -3.0148 P.3     1  UNL1        0.2189
      2 O          23.2266   72.9330   -3.8789 O.2     1  UNL1       -0.5170
      3 O          24.2237   70.7634   -3.0611 O.3     1  UNL1       -0.4371
      4 O          22.7208   72.2532   -1.5024 O.3     1  UNL1       -0.3112
      5 C          21.6069   71.5141   -0.9990 C.3     1  UNL1        0.1811
      6 C          23.2197   71.8957    2.1917 C.3     1  UNL1        0.2383
      7 C          22.5576   73.2714    1.9234 C.3     1  UNL1        0.1895
      8 O          22.1762   73.9014    3.1485 O.3     1  UNL1       -0.3779
      9 C          21.3090   72.8747    1.0933 C.3     1  UNL1        0.1713
     10 C          21.6604   71.4853    0.5296 C.3     1  UNL1        0.1764
     11 O          22.9936   71.1682    0.9657 O.3     1  UNL1       -0.3308
     12 O          20.1537   72.8043    1.9313 O.3     1  UNL1       -0.3794
     13 H          21.7729   74.7485    2.9127 H       1  UNL1        0.2106
     14 H          20.0207   73.6882    2.2998 H       1  UNL1        0.2105
     15 N          24.6535   72.0511    2.4423 N.ar    1  UNL1       -0.2551
     16 C          25.4443   70.9644    2.4868 C.ar    1  UNL1        0.3323
     17 N          26.7664   71.0799    2.7120 N.ar    1  UNL1       -0.2743
     18 C          27.3194   72.2924    2.9074 C.ar    1  UNL1        0.2626
     19 C          26.4977   73.4455    2.8691 C.ar    1  UNL1        0.0795
     20 C          25.1756   73.3015    2.6371 C.ar    1  UNL1        0.0869
     21 O          24.9599   69.8640    2.3119 O.2     1  UNL1       -0.2464
     22 O          28.5152   72.3976    3.1161 O.2     1  UNL1       -0.2670
     23 H          27.3228   70.2853    2.7365 H       1  UNL1        0.1734
     24 O          21.6501   70.9913   -3.5447 O.3     1  UNL1       -0.2703
     25 P          20.8271   72.0382   -4.4484 P.3     1  UNL1        0.2208
     26 O          21.0313   73.4074   -3.9262 O.2     1  UNL1       -0.5170
     27 O          21.3504   71.9609   -5.9697 O.3     1  UNL1       -0.4371
     28 O          19.2604   71.6732   -4.4020 O.3     1  UNL1       -0.2858
     29 C          19.1149   70.3904   -5.0126 C.3     1  UNL1        0.2704
     30 C          18.1030   70.4825   -6.1559 C.3     1  UNL1        0.1967
     31 C          16.7629   70.9708   -5.5975 C.3     1  UNL1        0.1715
     32 C          16.3538   70.0575   -4.4364 C.3     1  UNL1        0.1694
     33 C          17.4984   69.9993   -3.4218 C.3     1  UNL1        0.1761
     34 O          18.5765   71.4024   -7.1411 O.3     1  UNL1       -0.3775
     35 O          15.7689   70.9218   -6.6232 O.3     1  UNL1       -0.3794
     36 O          16.0817   68.7462   -4.9328 O.3     1  UNL1       -0.3794
     37 O          18.6620   69.4516   -4.0398 O.3     1  UNL1       -0.3258
     38 H          19.4230   71.0598   -7.4588 H       1  UNL1        0.2106
     39 H          16.0726   71.4991   -7.3350 H       1  UNL1        0.2105
     40 H          15.3609   68.8323   -5.5703 H       1  UNL1        0.2105
     41 C          17.0868   69.1168   -2.2412 C.3     1  UNL1        0.1693
     42 O          15.6638   68.9926   -2.2138 O.3     1  UNL1       -0.3794
     43 H          15.4465   68.4300   -1.4578 H       1  UNL1        0.2105
@<TRIPOS>BOND
     1    15    16   ar
     2    15    20   ar
     3    15     6    1
     4    16    17   ar
     5    16    21    2
     6    17    18   ar
     7    17    23    1
     8    18    19   ar
     9    18    22    2
    10    19    20   ar
    11     6     7    1
    12     6    11    1
    13     7     8    1
    14     7     9    1
    15     8    13    1
    16     9    10    1
    17     9    12    1
    18    10    11    1
    19    10     5    1
    20    12    14    1
    21     5     4    1
    22     4     1    1
    23     1     2    2
    24     1     3    1
    25     1    24    1
    26    24    25    1
    27    25    26    2
    28    25    27    1
    29    25    28    1
    30    28    29    1
    31    29    30    1
    32    29    37    1
    33    30    31    1
    34    30    34    1
    35    31    32    1
    36    31    35    1
    37    32    33    1
    38    32    36    1
    39    33    41    1
    40    33    37    1
    41    41    42    1
    42    34    38    1
    43    35    39    1
    44    36    40    1
    45    42    43    1
@<TRIPOS>MOLECULE
GDU
 43 45 0 0 0
SMALL
GASTEIGER

@<TRIPOS>ATOM
      1 P          22.6533   71.7600   -2.9346 P.3     1  UNL1        0.2189
      2 O          21.8705   70.5098   -2.8172 O.2     1  UNL1       -0.5170
      3 O          24.1310   71.4190   -3.4759 O.3     1  UNL1       -0.4371
      4 O          21.9219   72.7571   -3.9630 O.3     1  UNL1       -0.3112
      5 C          22.6856   72.7397   -5.1701 C.3     1  UNL1        0.1811
      6 C          19.6382   71.8741   -6.8705 C.3     1  UNL1        0.2383
      7 C          19.3766   73.2918   -6.3007 C.3     1  UNL1        0.1895
      8 O          18.4781   74.0209   -7.1399 O.3     1  UNL1       -0.3779
      9 C          20.7941   73.9204   -6.3302 C.3     1  UNL1        0.1713
     10 C          21.7410   72.7066   -6.3729 C.3     1  UNL1        0.1764
     11 O          20.9261   71.5228   -6.3216 O.3     1  UNL1       -0.3308
     12 O          20.9568   74.7314   -7.4954 O.3     1  UNL1       -0.3794
     13 H          18.3576   74.8894   -6.7313 H       1  UNL1        0.2106
     14 H          20.2988   75.4375   -7.4393 H       1  UNL1        0.2105
     15 N          18.6106   70.9357   -6.4163 N.ar    1  UNL1       -0.2551
     16 C          18.4827   70.6705   -5.1042 C.ar    1  UNL1        0.3323
     17 N          17.5438   69.8143   -4.6600 N.ar    1  UNL1       -0.2743
     18 C          16.7192   69.1987   -5.5291 C.ar    1  UNL1        0.2626
     19 C          16.8462   69.4639   -6.9147 C.ar    1  UNL1        0.0795
     20 C          17.7935   70.3301   -7.3327 C.ar    1  UNL1        0.0869
     21 O          19.2190   71.2186   -4.3082 O.2     1  UNL1       -0.2464
     22 O          15.8722   68.4199   -5.1285 O.2     1  UNL1       -0.2670
     23 H          17.4628   69.6380   -3.7092 H       1  UNL1        0.1734
     24 O          22.7613   72.4620   -1.4896 O.3     1  UNL1       -0.2703
     25 P          21.3565   72.2147   -0.7444 P.3     1  UNL1        0.2208
     26 O          20.2532   72.7163   -1.5930 O.2     1  UNL1       -0.5170
     27 O          21.1579   70.6377   -0.4837 O.3     1  UNL1       -0.4371
     28 O          21.3497   72.9950    0.6631 O.3     1  UNL1       -0.2858
     29 C          22.7118   73.1242    1.0726 C.3     1  UNL1        0.2704
     30 C          22.9255   72.3585    2.3793 C.3     1  UNL1        0.1967
     31 C          21.9837   72.9229    3.4475 C.3     1  UNL1        0.1715
     32 C          22.1964   74.4382    3.5371 C.3     1  UNL1        0.1694
     33 C          22.0359   75.0468    2.1418 C.3     1  UNL1        0.1761
     34 O          22.6432   70.9731    2.1739 O.3     1  UNL1       -0.3775
     35 O          22.2735   72.3194    4.7102 O.3     1  UNL1       -0.3794
     36 O          23.5082   74.7081    4.0334 O.3     1  UNL1       -0.3794
     37 O          23.0201   74.5030    1.2634 O.3     1  UNL1       -0.3258
     38 H          23.2528   70.6626    1.4906 H       1  UNL1        0.2106
     39 H          22.1385   71.3693    4.6038 H       1  UNL1        0.2105
     40 H          23.5654   74.3026    4.9084 H       1  UNL1        0.2105
     41 C          22.2125   76.5646    2.2259 C.3     1  UNL1        0.1693
     42 O          23.6055   76.8816    2.2314 O.3     1  UNL1       -0.3794
     43 H          23.6731   77.8449    2.2844 H       1  UNL1        0.2105
@<TRIPOS>BOND
     1    15    16   ar
     2    15    20   ar
     3    15     6    1
     4    16    17   ar
     5    16    21    2
     6    17    18   ar
     7    17    23    1
     8    18    19   ar
     9    18    22    2
    10    19    20   ar
    11     6     7    1
    12     6    11    1
    13     7     8    1
    14     7     9    1
    15     8    13    1
    16     9    10    1
    17     9    12    1
    18    10    11    1
    19    10     5    1
    20    12    14    1
    21     5     4    1
    22     4     1    1
    23     1     2    2
    24     1     3    1
    25     1    24    1
    26    24    25    1
    27    25    26    2
    28    25    27    1
    29    25    28    1
    30    28    29    1
    31    29    30    1
    32    29    37    1
    33    30    31    1
    34    30    34    1
    35    31    32    1
    36    31    35    1
    37    32    33    1
    38    32    36    1
    39    33    41    1
    40    33    37    1
    41    41    42    1
    42    34    38    1
    43    35    39    1
    44    36    40    1
    45    42    43    1
@<TRIPOS>MOLECULE
GDU
 43 45 0 0 0
SMALL
GASTEIGER

@<TRIPOS>ATOM
      1 P          16.1347   69.5937   -2.4428 P.3     1  UNL1        0.2189
      2 O          16.6946   68.4117   -1.7508 O.2     1  UNL1       -0.5170
      3 O          15.9765   69.2715   -4.0125 O.3     1  UNL1       -0.4371
      4 O          14.6949   69.9486   -1.8200 O.3     1  UNL1       -0.3112
      5 C          14.6988   69.4749   -0.4723 C.3     1  UNL1        0.1811
      6 C          12.6323   67.1857    1.3761 C.3     1  UNL1        0.2383
      7 C          11.6914   68.3686    1.0321 C.3     1  UNL1        0.1895
      8 O          10.3427   67.9199    0.8807 O.3     1  UNL1       -0.3779
      9 C          12.2668   68.8583   -0.3223 C.3     1  UNL1        0.1713
     10 C          13.7085   68.3172   -0.3339 C.3     1  UNL1        0.1764
     11 O          13.9235   67.6373    0.9150 O.3     1  UNL1       -0.3308
     12 O          11.5136   68.3178   -1.4097 O.3     1  UNL1       -0.3794
     13 H           9.8113   68.7001    0.6689 H       1  UNL1        0.2106
     14 H          10.6089   68.6448   -1.3137 H       1  UNL1        0.2105
     15 N          12.6555   66.9452    2.8198 N.ar    1  UNL1       -0.2551
     16 C          12.5101   67.9767    3.6702 C.ar    1  UNL1        0.3323
     17 N          12.5241   67.7822    5.0020 N.ar    1  UNL1       -0.2743
     18 C          12.6949   66.5452    5.5068 C.ar    1  UNL1        0.2626
     19 C          12.8551   65.4499    4.6232 C.ar    1  UNL1        0.0795
     20 C          12.8328   65.6724    3.2918 C.ar    1  UNL1        0.0869
     21 O          12.3547   69.0982    3.2296 O.2     1  UNL1       -0.2464
     22 O          12.7125   66.3688    6.7123 O.2     1  UNL1       -0.2670
     23 H          12.4134   68.5377    5.6011 H       1  UNL1        0.1734
     24 O          17.1274   70.8468   -2.2510 O.3     1  UNL1       -0.2703
     25 P          18.4983   70.4762   -3.0081 P.3     1  UNL1        0.2208
     26 O          19.6490   70.8892   -2.1748 O.2     1  UNL1       -0.5170
     27 O          18.5604   68.8862   -3.2577 O.3     1  UNL1       -0.4371
     28 O          18.5559   71.2428   -4.4220 O.3     1  UNL1       -0.2858
     29 C          19.1176   70.3302   -5.3662 C.3     1  UNL1        0.2704
     30 C          20.1857   71.0471   -6.1937 C.3     1  UNL1        0.1967
     31 C          19.5444   72.2397   -6.9098 C.3     1  UNL1        0.1715
     32 C          18.3310   71.7407   -7.7025 C.3     1  UNL1        0.1694
     33 C          17.4020   70.9724   -6.7593 C.3     1  UNL1        0.1761
     34 O          21.2286   71.5081   -5.3329 O.3     1  UNL1       -0.3775
     35 O          20.4925   72.8314   -7.8005 O.3     1  UNL1       -0.3794
     36 O          18.7689   70.8805   -8.7552 O.3     1  UNL1       -0.3794
     37 O          18.0881   69.8420   -6.2231 O.3     1  UNL1       -0.3258
     38 H          21.5978   70.7269   -4.8989 H       1  UNL1        0.2106
     39 H          21.2408   73.1187   -7.2622 H       1  UNL1        0.2105
     40 H          19.3538   71.4033   -9.3189 H       1  UNL1        0.2105
     41 C          16.1699   70.4989   -7.5337 C.3     1  UNL1        0.1693
     42 O          16.2601   70.9431   -8.8885 O.3     1  UNL1       -0.3794
     43 H          15.4672   70.6242   -9.3411 H       1  UNL1        0.2105
@<TRIPOS>BOND
     1    15    16   ar
     2    15    20   ar
     3    15     6    1
     4    16    17   ar
     5    16    21    2
     6    17    18   ar
     7    17    23    1
     8    18    19   ar
     9    18    22    2
    10    19    20   ar
    11     6     7    1
    12     6    11    1
    13     7     8    1
    14     7     9    1
    15     8    13    1
    16     9    10    1
    17     9    12    1
    18    10    11    1
    19    10     5    1
    20    12    14    1
    21     5     4    1
    22     4     1    1
    23     1     2    2
    24     1     3    1
    25     1    24    1
    26    24    25    1
    27    25    26    2
    28    25    27    1
    29    25    28    1
    30    28    29    1
    31    29    30    1
    32    29    37    1
    33    30    31    1
    34    30    34    1
    35    31    32    1
    36    31    35    1
    37    32    33    1
    38    32    36    1
    39    33    41    1
    40    33    37    1
    41    41    42    1
    42    34    38    1
    43    35    39    1
    44    36    40    1
    45    42    43    1
@<TRIPOS>MOLECULE
GDU
 43 45 0 0 0
SMALL
GASTEIGER

@<TRIPOS>ATOM
      1 P          17.4744   69.5655   -2.6048 P.3     1  UNL1        0.2189
      2 O          16.8164   68.3634   -2.0467 O.2     1  UNL1       -0.5170
      3 O          16.3815   70.7309   -2.8059 O.3     1  UNL1       -0.4371
      4 O          18.6176   70.0708   -1.5925 O.3     1  UNL1       -0.3112
      5 C          19.2840   71.1607   -2.2317 C.3     1  UNL1        0.1811
      6 C          21.3851   72.7596    0.2088 C.3     1  UNL1        0.2383
      7 C          21.7063   73.4906   -1.1199 C.3     1  UNL1        0.1895
      8 O          22.0720   74.8511   -0.8779 O.3     1  UNL1       -0.3779
      9 C          20.3526   73.4071   -1.8721 C.3     1  UNL1        0.1713
     10 C          19.6199   72.2341   -1.1948 C.3     1  UNL1        0.1764
     11 O          20.5040   71.6915   -0.1988 O.3     1  UNL1       -0.3308
     12 O          19.6179   74.6226   -1.7147 O.3     1  UNL1       -0.3794
     13 H          22.2586   75.2473   -1.7405 H       1  UNL1        0.2106
     14 H          20.1537   75.3263   -2.1051 H       1  UNL1        0.2105
     15 N          22.6053   72.2202    0.8113 N.ar    1  UNL1       -0.2551
     16 C          22.6697   70.9162    1.1337 C.ar    1  UNL1        0.3323
     17 N          23.7810   70.3944    1.6854 N.ar    1  UNL1       -0.2743
     18 C          24.8488   71.1769    1.9338 C.ar    1  UNL1        0.2626
     19 C          24.7932   72.5535    1.6048 C.ar    1  UNL1        0.0795
     20 C          23.6679   73.0501    1.0485 C.ar    1  UNL1        0.0869
     21 O          21.7146   70.1978    0.9151 O.2     1  UNL1       -0.2464
     22 O          25.8534   70.7064    2.4376 O.2     1  UNL1       -0.2670
     23 H          23.8115   69.4502    1.9078 H       1  UNL1        0.1734
     24 O          18.1371   69.2021   -4.0265 O.3     1  UNL1       -0.2703
     25 P          17.0364   69.5336   -5.1528 P.3     1  UNL1        0.2208
     26 O          16.0608   68.4239   -5.2304 O.2     1  UNL1       -0.5170
     27 O          16.2688   70.8963   -4.7681 O.3     1  UNL1       -0.4371
     28 O          17.7622   69.7120   -6.5780 O.3     1  UNL1       -0.2858
     29 C          17.7924   71.1126   -6.8559 C.3     1  UNL1        0.2704
     30 C          17.9182   71.3298   -8.3646 C.3     1  UNL1        0.1967
     31 C          19.1993   70.6523   -8.8607 C.3     1  UNL1        0.1715
     32 C          20.3792   71.1650   -8.0273 C.3     1  UNL1        0.1694
     33 C          20.0672   70.9583   -6.5431 C.3     1  UNL1        0.1761
     34 O          16.7870   70.7607   -9.0261 O.3     1  UNL1       -0.3775
     35 O          19.4077   70.9697  -10.2385 O.3     1  UNL1       -0.3794
     36 O          20.5811   72.5545   -8.2891 O.3     1  UNL1       -0.3794
     37 O          18.9040   71.7041   -6.1873 O.3     1  UNL1       -0.3258
     38 H          16.0050   71.2108   -8.6786 H       1  UNL1        0.2106
     39 H          18.6388   70.6406  -10.7210 H       1  UNL1        0.2105
     40 H          20.7681   72.6371   -9.2332 H       1  UNL1        0.2105
     41 C          21.2539   71.4357   -5.7029 C.3     1  UNL1        0.1693
     42 O          22.3878   71.6315   -6.5497 O.3     1  UNL1       -0.3794
     43 H          23.1117   71.9321   -5.9831 H       1  UNL1        0.2105
@<TRIPOS>BOND
     1    15    16   ar
     2    15    20   ar
     3    15     6    1
     4    16    17   ar
     5    16    21    2
     6    17    18   ar
     7    17    23    1
     8    18    19   ar
     9    18    22    2
    10    19    20   ar
    11     6     7    1
    12     6    11    1
    13     7     8    1
    14     7     9    1
    15     8    13    1
    16     9    10    1
    17     9    12    1
    18    10    11    1
    19    10     5    1
    20    12    14    1
    21     5     4    1
    22     4     1    1
    23     1     2    2
    24     1     3    1
    25     1    24    1
    26    24    25    1
    27    25    26    2
    28    25    27    1
    29    25    28    1
    30    28    29    1
    31    29    30    1
    32    29    37    1
    33    30    31    1
    34    30    34    1
    35    31    32    1
    36    31    35    1
    37    32    33    1
    38    32    36    1
    39    33    41    1
    40    33    37    1
    41    41    42    1
    42    34    38    1
    43    35    39    1
    44    36    40    1
    45    42    43    1
@<TRIPOS>MOLECULE
GDU
 43 45 0 0 0
SMALL
GASTEIGER

@<TRIPOS>ATOM
      1 P          23.0408   73.0504   -4.5040 P.3     1  UNL1        0.2189
      2 O          24.4448   72.9142   -4.0573 O.2     1  UNL1       -0.5170
      3 O          22.7942   74.5449   -5.0505 O.3     1  UNL1       -0.4371
      4 O          22.7464   71.9936   -5.6802 O.3     1  UNL1       -0.3112
      5 C          21.4841   72.3471   -6.2477 C.3     1  UNL1        0.1811
      6 C          18.6503   70.2668   -5.4932 C.3     1  UNL1        0.2383
      7 C          18.2040   71.1022   -6.7203 C.3     1  UNL1        0.1895
      8 O          17.2802   70.3689   -7.5278 O.3     1  UNL1       -0.3779
      9 C          19.5439   71.3188   -7.4707 C.3     1  UNL1        0.1713
     10 C          20.6183   71.0941   -6.3905 C.3     1  UNL1        0.1764
     11 O          19.9358   70.8283   -5.1529 O.3     1  UNL1       -0.3308
     12 O          19.6828   70.3690   -8.5292 O.3     1  UNL1       -0.3794
     13 H          17.0428   70.9418   -8.2702 H       1  UNL1        0.2106
     14 H          18.9496   70.5218   -9.1406 H       1  UNL1        0.2105
     15 N          17.7071   70.4288   -4.3855 N.ar    1  UNL1       -0.2551
     16 C          16.7344   69.5191   -4.1995 C.ar    1  UNL1        0.3323
     17 N          15.8565   69.6428   -3.1867 N.ar    1  UNL1       -0.2743
     18 C          15.9332   70.6911   -2.3445 C.ar    1  UNL1        0.2626
     19 C          16.9492   71.6602   -2.5317 C.ar    1  UNL1        0.0795
     20 C          17.8191   71.5097   -3.5529 C.ar    1  UNL1        0.0869
     21 O          16.6529   68.5678   -4.9508 O.2     1  UNL1       -0.2464
     22 O          15.1361   70.8064   -1.4302 O.2     1  UNL1       -0.2670
     23 H          15.1634   68.9745   -3.0647 H       1  UNL1        0.1734
     24 O          22.0541   72.7642   -3.2643 O.3     1  UNL1       -0.2703
     25 P          22.6313   71.4727   -2.4969 P.3     1  UNL1        0.2208
     26 O          21.6634   70.3593   -2.6087 O.2     1  UNL1       -0.5170
     27 O          24.0313   71.0348   -3.1622 O.3     1  UNL1       -0.4371
     28 O          22.8643   71.8289   -0.9449 O.3     1  UNL1       -0.2858
     29 C          21.9123   71.0704   -0.1977 C.3     1  UNL1        0.2704
     30 C          20.7329   71.9669    0.1829 C.3     1  UNL1        0.1967
     31 C          21.2509   73.1486    1.0085 C.3     1  UNL1        0.1715
     32 C          22.0631   72.6033    2.1886 C.3     1  UNL1        0.1694
     33 C          23.1437   71.6594    1.6552 C.3     1  UNL1        0.1761
     34 O          20.0977   72.4507   -1.0019 O.3     1  UNL1       -0.3775
     35 O          20.1470   73.9146    1.4954 O.3     1  UNL1       -0.3794
     36 O          21.1982   71.8940    3.0767 O.3     1  UNL1       -0.3794
     37 O          22.5328   70.5607    0.9804 O.3     1  UNL1       -0.3258
     38 H          19.7946   71.6747   -1.4927 H       1  UNL1        0.2106
     39 H          19.6598   74.2261    0.7222 H       1  UNL1        0.2105
     40 H          20.5327   72.5242    3.3821 H       1  UNL1        0.2105
     41 C          23.9827   71.1358    2.8231 C.3     1  UNL1        0.1693
     42 O          24.8875   70.1373    2.3484 O.3     1  UNL1       -0.3794
     43 H          25.3966   69.8347    3.1130 H       1  UNL1        0.2105
@<TRIPOS>BOND
     1    15    16   ar
     2    15    20   ar
     3    15     6    1
     4    16    17   ar
     5    16    21    2
     6    17    18   ar
     7    17    23    1
     8    18    19   ar
     9    18    22    2
    10    19    20   ar
    11     6     7    1
    12     6    11    1
    13     7     8    1
    14     7     9    1
    15     8    13    1
    16     9    10    1
    17     9    12    1
    18    10    11    1
    19    10     5    1
    20    12    14    1
    21     5     4    1
    22     4     1    1
    23     1     2    2
    24     1     3    1
    25     1    24    1
    26    24    25    1
    27    25    26    2
    28    25    27    1
    29    25    28    1
    30    28    29    1
    31    29    30    1
    32    29    37    1
    33    30    31    1
    34    30    34    1
    35    31    32    1
    36    31    35    1
    37    32    33    1
    38    32    36    1
    39    33    41    1
    40    33    37    1
    41    41    42    1
    42    34    38    1
    43    35    39    1
    44    36    40    1
    45    42    43    1
@<TRIPOS>MOLECULE
GDU
 43 45 0 0 0
SMALL
GASTEIGER

@<TRIPOS>ATOM
      1 P          22.8043   71.7368   -3.2974 P.3     1  UNL1        0.2189
      2 O          23.1168   72.9628   -4.0649 O.2     1  UNL1       -0.5170
      3 O          24.1709   70.9615   -2.9451 O.3     1  UNL1       -0.4371
      4 O          22.0463   72.1342   -1.9357 O.3     1  UNL1       -0.3112
      5 C          21.7627   70.9142   -1.2488 C.3     1  UNL1        0.1811
      6 C          23.1163   71.8611    1.9447 C.3     1  UNL1        0.2383
      7 C          22.5406   73.1765    1.3606 C.3     1  UNL1        0.1895
      8 O          22.0855   74.0415    2.4037 O.3     1  UNL1       -0.3779
      9 C          21.3501   72.6610    0.5107 C.3     1  UNL1        0.1713
     10 C          21.6860   71.1799    0.2557 C.3     1  UNL1        0.1764
     11 O          22.9624   70.9168    0.8639 O.3     1  UNL1       -0.3308
     12 O          20.1263   72.7854    1.2379 O.3     1  UNL1       -0.3794
     13 H          21.7414   74.8377    1.9754 H       1  UNL1        0.2106
     14 H          20.0020   73.7271    1.4180 H       1  UNL1        0.2105
     15 N          24.5294   72.0229    2.2909 N.ar    1  UNL1       -0.2551
     16 C          25.3281   70.9430    2.3553 C.ar    1  UNL1        0.3323
     17 N          26.6317   71.0647    2.6679 N.ar    1  UNL1       -0.2743
     18 C          27.1573   72.2763    2.9323 C.ar    1  UNL1        0.2626
     19 C          26.3266   73.4221    2.8739 C.ar    1  UNL1        0.0795
     20 C          25.0237   73.2722    2.5538 C.ar    1  UNL1        0.0869
     21 O          24.8683   69.8436    2.1188 O.2     1  UNL1       -0.2464
     22 O          28.3360   72.3869    3.2200 O.2     1  UNL1       -0.2670
     23 H          27.1944   70.2750    2.7056 H       1  UNL1        0.1734
     24 O          21.8578   70.7790   -4.1801 O.3     1  UNL1       -0.2703
     25 P          20.8140   71.7335   -4.9478 P.3     1  UNL1        0.2208
     26 O          20.1223   72.5978   -3.9662 O.2     1  UNL1       -0.5170
     27 O          21.6062   72.6525   -6.0069 O.3     1  UNL1       -0.4371
     28 O          19.7321   70.8312   -5.7259 O.3     1  UNL1       -0.2858
     29 C          18.7620   71.7256   -6.2725 C.3     1  UNL1        0.2704
     30 C          17.3611   71.2713   -5.8599 C.3     1  UNL1        0.1967
     31 C          17.1293   69.8452   -6.3688 C.3     1  UNL1        0.1715
     32 C          17.4086   69.8111   -7.8756 C.3     1  UNL1        0.1694
     33 C          18.8079   70.3748   -8.1352 C.3     1  UNL1        0.1761
     34 O          17.2497   71.2969   -4.4357 O.3     1  UNL1       -0.3775
     35 O          15.7754   69.4608   -6.1202 O.3     1  UNL1       -0.3794
     36 O          16.4354   70.6013   -8.5599 O.3     1  UNL1       -0.3794
     37 O          18.8703   71.7303   -7.6941 O.3     1  UNL1       -0.3258
     38 H          17.4096   72.2096   -4.1598 H       1  UNL1        0.2106
     39 H          15.6419   69.5082   -5.1651 H       1  UNL1        0.2105
     40 H          15.5723   70.2142   -8.3636 H       1  UNL1        0.2105
     41 C          19.1104   70.3136   -9.6341 C.3     1  UNL1        0.1693
     42 O          18.4629   71.4023  -10.2948 O.3     1  UNL1       -0.3794
     43 H          18.6788   71.3277  -11.2345 H       1  UNL1        0.2105
@<TRIPOS>BOND
     1    15    16   ar
     2    15    20   ar
     3    15     6    1
     4    16    17   ar
     5    16    21    2
     6    17    18   ar
     7    17    23    1
     8    18    19   ar
     9    18    22    2
    10    19    20   ar
    11     6     7    1
    12     6    11    1
    13     7     8    1
    14     7     9    1
    15     8    13    1
    16     9    10    1
    17     9    12    1
    18    10    11    1
    19    10     5    1
    20    12    14    1
    21     5     4    1
    22     4     1    1
    23     1     2    2
    24     1     3    1
    25     1    24    1
    26    24    25    1
    27    25    26    2
    28    25    27    1
    29    25    28    1
    30    28    29    1
    31    29    30    1
    32    29    37    1
    33    30    31    1
    34    30    34    1
    35    31    32    1
    36    31    35    1
    37    32    33    1
    38    32    36    1
    39    33    41    1
    40    33    37    1
    41    41    42    1
    42    34    38    1
    43    35    39    1
    44    36    40    1
    45    42    43    1
@<TRIPOS>MOLECULE
GDU
 43 45 0 0 0
SMALL
GASTEIGER

@<TRIPOS>ATOM
      1 P          20.4245   71.3637   -2.2450 P.3     1  UNL1        0.2189
      2 O          20.5126   72.6968   -1.6090 O.2     1  UNL1       -0.5170
      3 O          19.2909   70.4906   -1.5062 O.3     1  UNL1       -0.4371
      4 O          20.0436   71.5338   -3.7983 O.3     1  UNL1       -0.3112
      5 C          20.7799   70.5421   -4.5159 C.3     1  UNL1        0.1811
      6 C          18.1745   70.8640   -6.9727 C.3     1  UNL1        0.2383
      7 C          19.4113   71.5305   -7.6276 C.3     1  UNL1        0.1895
      8 O          19.3770   71.3835   -9.0490 O.3     1  UNL1       -0.3779
      9 C          20.5811   70.7168   -7.0154 C.3     1  UNL1        0.1713
     10 C          19.9790   70.0968   -5.7408 C.3     1  UNL1        0.1764
     11 O          18.6230   70.5636   -5.6340 O.3     1  UNL1       -0.3308
     12 O          21.0089   69.6980   -7.9215 O.3     1  UNL1       -0.3794
     13 H          20.1698   71.8178   -9.3935 H       1  UNL1        0.2106
     14 H          21.3190   70.1457   -8.7203 H       1  UNL1        0.2105
     15 N          17.0422   71.7913   -6.9414 N.ar    1  UNL1       -0.2551
     16 C          16.1493   71.7199   -5.9384 C.ar    1  UNL1        0.3323
     17 N          15.1014   72.5630   -5.8842 N.ar    1  UNL1       -0.2743
     18 C          14.9243   73.4903   -6.8449 C.ar    1  UNL1        0.2626
     19 C          15.8536   73.5733   -7.9105 C.ar    1  UNL1        0.0795
     20 C          16.8980   72.7184   -7.9383 C.ar    1  UNL1        0.0869
     21 O          16.2962   70.8889   -5.0643 O.2     1  UNL1       -0.2464
     22 O          13.9734   74.2507   -6.7992 O.2     1  UNL1       -0.2670
     23 H          14.4691   72.5000   -5.1507 H       1  UNL1        0.1734
     24 O          21.8442   70.6148   -2.1182 O.3     1  UNL1       -0.2703
     25 P          22.9518   71.7543   -1.8634 P.3     1  UNL1        0.2208
     26 O          24.2967   71.1381   -1.8391 O.2     1  UNL1       -0.5170
     27 O          22.8825   72.8439   -3.0475 O.3     1  UNL1       -0.4371
     28 O          22.6658   72.4765   -0.4539 O.3     1  UNL1       -0.2858
     29 C          23.2806   71.6746    0.5555 C.3     1  UNL1        0.2704
     30 C          22.2294   71.2590    1.5859 C.3     1  UNL1        0.1967
     31 C          21.6075   72.5174    2.1991 C.3     1  UNL1        0.1715
     32 C          22.7330   73.4075    2.7381 C.3     1  UNL1        0.1694
     33 C          23.7457   73.6620    1.6188 C.3     1  UNL1        0.1761
     34 O          21.2135   70.4837    0.9472 O.3     1  UNL1       -0.3775
     35 O          20.7310   72.1487    3.2660 O.3     1  UNL1       -0.3794
     36 O          23.3772   72.7533    3.8322 O.3     1  UNL1       -0.3794
     37 O          24.3128   72.4241    1.1922 O.3     1  UNL1       -0.3258
     38 H          21.6502   69.7077    0.5704 H       1  UNL1        0.2106
     39 H          20.0486   71.5820    2.8845 H       1  UNL1        0.2105
     40 H          22.7025   72.6086    4.5083 H       1  UNL1        0.2105
     41 C          24.8564   74.5783    2.1370 C.3     1  UNL1        0.1693
     42 O          25.3825   75.3472    1.0539 O.3     1  UNL1       -0.3794
     43 H          26.0773   75.9103    1.4219 H       1  UNL1        0.2105
@<TRIPOS>BOND
     1    15    16   ar
     2    15    20   ar
     3    15     6    1
     4    16    17   ar
     5    16    21    2
     6    17    18   ar
     7    17    23    1
     8    18    19   ar
     9    18    22    2
    10    19    20   ar
    11     6     7    1
    12     6    11    1
    13     7     8    1
    14     7     9    1
    15     8    13    1
    16     9    10    1
    17     9    12    1
    18    10    11    1
    19    10     5    1
    20    12    14    1
    21     5     4    1
    22     4     1    1
    23     1     2    2
    24     1     3    1
    25     1    24    1
    26    24    25    1
    27    25    26    2
    28    25    27    1
    29    25    28    1
    30    28    29    1
    31    29    30    1
    32    29    37    1
    33    30    31    1
    34    30    34    1
    35    31    32    1
    36    31    35    1
    37    32    33    1
    38    32    36    1
    39    33    41    1
    40    33    37    1
    41    41    42    1
    42    34    38    1
    43    35    39    1
    44    36    40    1
    45    42    43    1
@<TRIPOS>MOLECULE
GDU
 43 45 0 0 0
SMALL
GASTEIGER

@<TRIPOS>ATOM
      1 P          22.7317   72.2765   -3.7470 P.3     1  UNL1        0.2189
      2 O          22.1434   73.5648   -3.3184 O.2     1  UNL1       -0.5170
      3 O          24.1616   72.5431   -4.4379 O.3     1  UNL1       -0.4371
      4 O          22.9239   71.3216   -2.4670 O.3     1  UNL1       -0.3112
      5 C          23.0938   72.1762   -1.3351 C.3     1  UNL1        0.1811
      6 C          24.5091   71.5612    1.9124 C.3     1  UNL1        0.2383
      7 C          23.0824   72.0924    2.2040 C.3     1  UNL1        0.1895
      8 O          22.5649   71.5278    3.4110 O.3     1  UNL1       -0.3779
      9 C          22.2888   71.5856    0.9717 C.3     1  UNL1        0.1713
     10 C          23.3727   71.3295   -0.0919 C.3     1  UNL1        0.1764
     11 O          24.6365   71.7057    0.4819 O.3     1  UNL1       -0.3308
     12 O          21.5930   70.3781    1.2875 O.3     1  UNL1       -0.3794
     13 H          21.6794   71.8974    3.5345 H       1  UNL1        0.2106
     14 H          20.9725   70.5900    1.9979 H       1  UNL1        0.2105
     15 N          25.5143   72.3698    2.6041 N.ar    1  UNL1       -0.2551
     16 C          26.7489   71.8744    2.8004 C.ar    1  UNL1        0.3323
     17 N          27.6926   72.5986    3.4303 N.ar    1  UNL1       -0.2743
     18 C          27.4102   73.8346    3.8853 C.ar    1  UNL1        0.2626
     19 C          26.1123   74.3672    3.6907 C.ar    1  UNL1        0.0795
     20 C          25.1860   73.6211    3.0520 C.ar    1  UNL1        0.0869
     21 O          27.0186   70.7612    2.3952 O.2     1  UNL1       -0.2464
     22 O          28.2624   74.4890    4.4598 O.2     1  UNL1       -0.2670
     23 H          28.5797   72.2270    3.5596 H       1  UNL1        0.1734
     24 O          21.7498   71.5651   -4.8062 O.3     1  UNL1       -0.2703
     25 P          20.3862   71.2240   -4.0224 P.3     1  UNL1        0.2208
     26 O          20.6885   70.3597   -2.8602 O.2     1  UNL1       -0.5170
     27 O          19.7051   72.5911   -3.5111 O.3     1  UNL1       -0.4371
     28 O          19.3738   70.4591   -5.0124 O.3     1  UNL1       -0.2858
     29 C          18.1821   71.2438   -5.0745 C.3     1  UNL1        0.2704
     30 C          16.9821   70.3787   -4.6860 C.3     1  UNL1        0.1967
     31 C          16.8955   69.1869   -5.6444 C.3     1  UNL1        0.1715
     32 C          16.8802   69.7152   -7.0833 C.3     1  UNL1        0.1694
     33 C          18.0901   70.6297   -7.2906 C.3     1  UNL1        0.1761
     34 O          17.1452   69.9073   -3.3472 O.3     1  UNL1       -0.3775
     35 O          15.6978   68.4506   -5.3880 O.3     1  UNL1       -0.3794
     36 O          15.6761   70.4490   -7.3101 O.3     1  UNL1       -0.3794
     37 O          18.0114   71.7414   -6.3996 O.3     1  UNL1       -0.3258
     38 H          17.2022   70.6891   -2.7812 H       1  UNL1        0.2106
     39 H          15.7453   68.1491   -4.4720 H       1  UNL1        0.2105
     40 H          14.9433   69.8368   -7.1630 H       1  UNL1        0.2105
     41 C          18.1033   71.1357   -8.7348 C.3     1  UNL1        0.1693
     42 O          17.4770   70.1710   -9.5823 O.3     1  UNL1       -0.3794
     43 H          17.5053   70.5275  -10.4809 H       1  UNL1        0.2105
@<TRIPOS>BOND
     1    15    16   ar
     2    15    20   ar
     3    15     6    1
     4    16    17   ar
     5    16    21    2
     6    17    18   ar
     7    17    23    1
     8    18    19   ar
     9    18    22    2
    10    19    20   ar
    11     6     7    1
    12     6    11    1
    13     7     8    1
    14     7     9    1
    15     8    13    1
    16     9    10    1
    17     9    12    1
    18    10    11    1
    19    10     5    1
    20    12    14    1
    21     5     4    1
    22     4     1    1
    23     1     2    2
    24     1     3    1
    25     1    24    1
    26    24    25    1
    27    25    26    2
    28    25    27    1
    29    25    28    1
    30    28    29    1
    31    29    30    1
    32    29    37    1
    33    30    31    1
    34    30    34    1
    35    31    32    1
    36    31    35    1
    37    32    33    1
    38    32    36    1
    39    33    41    1
    40    33    37    1
    41    41    42    1
    42    34    38    1
    43    35    39    1
    44    36    40    1
    45    42    43    1
