@<TRIPOS>MOLECULE
UD1
 46 48 0 0 0
SMALL
GASTEIGER

@<TRIPOS>ATOM
      1 P          21.5953   70.7887   -2.5184 P.3     1  UNL1        0.2189
      2 O          21.8798   71.4344   -3.8188 O.2     1  UNL1       -0.5170
      3 O          21.2654   69.2303   -2.7537 O.3     1  UNL1       -0.4371
      4 O          20.3291   71.5061   -1.8293 O.3     1  UNL1       -0.3112
      5 C          19.9841   72.6194   -2.6550 C.3     1  UNL1        0.1811
      6 C          17.8292   71.4964   -5.3050 C.3     1  UNL1        0.2383
      7 C          17.9581   70.2722   -4.3643 C.3     1  UNL1        0.1895
      8 O          16.7725   69.4769   -4.3952 O.3     1  UNL1       -0.3779
      9 C          18.1378   70.9441   -2.9782 C.3     1  UNL1        0.1713
     10 C          18.6264   72.3668   -3.3123 C.3     1  UNL1        0.1764
     11 O          18.7518   72.4533   -4.7420 O.3     1  UNL1       -0.3308
     12 O          16.8927   70.9874   -2.2779 O.3     1  UNL1       -0.3794
     13 H          16.9172   68.7348   -3.7919 H       1  UNL1        0.2106
     14 H          16.6111   70.0714   -2.1519 H       1  UNL1        0.2105
     15 N          18.2195   71.1453   -6.6709 N.ar    1  UNL1       -0.2551
     16 C          17.2787   70.7834   -7.5605 C.ar    1  UNL1        0.3323
     17 N          17.6083   70.4590   -8.8247 N.ar    1  UNL1       -0.2743
     18 C          18.8977   70.4834   -9.2183 C.ar    1  UNL1        0.2626
     19 C          19.8989   70.8568   -8.2904 C.ar    1  UNL1        0.0795
     20 C          19.5399   71.1825   -7.0301 C.ar    1  UNL1        0.0869
     21 O          16.1115   70.7565   -7.2206 O.2     1  UNL1       -0.2464
     22 O          19.1974   70.1857  -10.3598 O.2     1  UNL1       -0.2670
     23 H          16.9162   70.2049   -9.4544 H       1  UNL1        0.1734
     24 O          22.8788   70.9275   -1.5581 O.3     1  UNL1       -0.2703
     25 P          22.4000   70.5115   -0.0792 P.3     1  UNL1        0.2208
     26 O          23.0928   69.2709    0.3328 O.2     1  UNL1       -0.5170
     27 O          20.8094   70.2622   -0.0796 O.3     1  UNL1       -0.4371
     28 O          22.7562   71.6933    0.9538 O.3     1  UNL1       -0.2865
     29 C          21.8472   72.7632    0.6890 C.3     1  UNL1        0.2611
     30 C          22.6383   74.0142    0.3028 C.3     1  UNL1        0.1582
     31 C          23.5869   74.3813    1.4495 C.3     1  UNL1        0.1625
     32 C          22.7715   74.4986    2.7416 C.3     1  UNL1        0.1686
     33 C          21.9725   73.2097    2.9455 C.3     1  UNL1        0.1760
     34 O          24.2216   75.6293    1.1649 O.3     1  UNL1       -0.3801
     35 O          23.6543   74.6954    3.8477 O.3     1  UNL1       -0.3794
     36 O          21.0700   73.0244    1.8557 O.3     1  UNL1       -0.3263
     37 H          24.8078   75.8209    1.9099 H       1  UNL1        0.2105
     38 H          23.1010   74.7631    4.6387 H       1  UNL1        0.2105
     39 C          23.1732   74.4504   -2.0334 C.2     1  UNL1        0.2231
     40 C          23.9723   74.1754   -3.2817 C.3     1  UNL1        0.0946
     41 N          23.4147   73.7478   -0.9099 N.am    1  UNL1       -0.2994
     42 O          22.3120   75.3039   -2.0406 O.2     1  UNL1       -0.2751
     43 H          24.1036   73.0645   -0.9040 H       1  UNL1        0.1496
     44 C          21.1794   73.3037    4.2506 C.3     1  UNL1        0.1693
     45 O          21.8491   72.5593    5.2701 O.3     1  UNL1       -0.3794
     46 H          21.3178   72.6442    6.0733 H       1  UNL1        0.2105
@<TRIPOS>BOND
     1    29    30    1
     2    29    28    1
     3    29    36    1
     4    30    31    1
     5    30    41    1
     6    31    32    1
     7    31    34    1
     8    32    33    1
     9    32    35    1
    10    33    44    1
    11    33    36    1
    12    44    45    1
    13    39    40    1
    14    39    41   am
    15    39    42    2
    16    41    43    1
    17    28    25    1
    18    34    37    1
    19    35    38    1
    20    45    46    1
    21    15    16   ar
    22    15    20   ar
    23    15     6    1
    24    16    17   ar
    25    16    21    2
    26    17    18   ar
    27    17    23    1
    28    18    19   ar
    29    18    22    2
    30    19    20   ar
    31     6     7    1
    32     6    11    1
    33     7     8    1
    34     7     9    1
    35     8    13    1
    36     9    10    1
    37     9    12    1
    38    10    11    1
    39    10     5    1
    40    12    14    1
    41     5     4    1
    42     4     1    1
    43     1     2    2
    44     1     3    1
    45     1    24    1
    46    24    25    1
    47    25    26    2
    48    25    27    1
@<TRIPOS>MOLECULE
UD1
 46 48 0 0 0
SMALL
GASTEIGER

@<TRIPOS>ATOM
      1 P          21.7406   70.4239   -0.4529 P.3     1  UNL1        0.2189
      2 O          23.0593   70.8662   -0.9571 O.2     1  UNL1       -0.5170
      3 O          21.9474   69.4819    0.8364 O.3     1  UNL1       -0.4371
      4 O          20.9767   69.5965   -1.6039 O.3     1  UNL1       -0.3112
      5 C          21.1192   70.3424   -2.8137 C.3     1  UNL1        0.1811
      6 C          18.5219   70.8629   -5.2449 C.3     1  UNL1        0.2383
      7 C          18.1706   69.5053   -4.5861 C.3     1  UNL1        0.1895
      8 O          16.7585   69.2928   -4.5750 O.3     1  UNL1       -0.3779
      9 C          18.7135   69.6923   -3.1455 C.3     1  UNL1        0.1713
     10 C          19.7457   70.8286   -3.2789 C.3     1  UNL1        0.1764
     11 O          19.8020   71.1970   -4.6676 O.3     1  UNL1       -0.3308
     12 O          17.6581   70.0681   -2.2579 O.3     1  UNL1       -0.3794
     13 H          16.6076   68.4350   -4.1544 H       1  UNL1        0.2106
     14 H          17.0174   69.3445   -2.2637 H       1  UNL1        0.2105
     15 N          18.6316   70.7224   -6.6973 N.ar    1  UNL1       -0.2551
     16 C          17.5173   70.6675   -7.4474 C.ar    1  UNL1        0.3323
     17 N          17.5882   70.5425   -8.7859 N.ar    1  UNL1       -0.2743
     18 C          18.7867   70.4607   -9.3982 C.ar    1  UNL1        0.2626
     19 C          19.9677   70.5113   -8.6200 C.ar    1  UNL1        0.0795
     20 C          19.8677   70.6423   -7.2798 C.ar    1  UNL1        0.0869
     21 O          16.4290   70.7400   -6.9099 O.2     1  UNL1       -0.2464
     22 O          18.8519   70.3429  -10.6078 O.2     1  UNL1       -0.2670
     23 H          16.7743   70.5093   -9.3119 H       1  UNL1        0.1734
     24 O          20.8635   71.7094   -0.0445 O.3     1  UNL1       -0.2703
     25 P          21.7649   73.0054   -0.3564 P.3     1  UNL1        0.2208
     26 O          21.1551   73.7756   -1.4627 O.2     1  UNL1       -0.5170
     27 O          23.2467   72.5400   -0.7805 O.3     1  UNL1       -0.4371
     28 O          21.8502   73.9304    0.9580 O.3     1  UNL1       -0.2865
     29 C          20.7238   73.5987    1.7720 C.3     1  UNL1        0.2611
     30 C          19.8613   74.8460    1.9732 C.3     1  UNL1        0.1582
     31 C          20.7067   75.9381    2.6382 C.3     1  UNL1        0.1625
     32 C          21.3319   75.3649    3.9144 C.3     1  UNL1        0.1686
     33 C          22.0862   74.0799    3.5662 C.3     1  UNL1        0.1760
     34 O          19.8760   77.0530    2.9670 O.3     1  UNL1       -0.3801
     35 O          22.2396   76.3175    4.4714 O.3     1  UNL1       -0.3794
     36 O          21.1774   73.1164    3.0349 O.3     1  UNL1       -0.3263
     37 H          20.4470   77.7143    3.3815 H       1  UNL1        0.2105
     38 H          22.6101   75.9168    5.2705 H       1  UNL1        0.2105
     39 C          18.0554   75.3715    0.4250 C.2     1  UNL1        0.2231
     40 C          17.5583   75.8610   -0.9113 C.3     1  UNL1        0.0946
     41 N          19.3779   75.3219    0.6754 N.am    1  UNL1       -0.2994
     42 O          17.2646   75.0216    1.2749 O.2     1  UNL1       -0.2751
     43 H          20.0110   75.6016   -0.0047 H       1  UNL1        0.1496
     44 C          22.7418   73.5168    4.8288 C.3     1  UNL1        0.1693
     45 O          21.8743   72.5510    5.4262 O.3     1  UNL1       -0.3794
     46 H          22.3237   72.2222    6.2164 H       1  UNL1        0.2105
@<TRIPOS>BOND
     1    29    30    1
     2    29    28    1
     3    29    36    1
     4    30    31    1
     5    30    41    1
     6    31    32    1
     7    31    34    1
     8    32    33    1
     9    32    35    1
    10    33    44    1
    11    33    36    1
    12    44    45    1
    13    39    40    1
    14    39    41   am
    15    39    42    2
    16    41    43    1
    17    28    25    1
    18    34    37    1
    19    35    38    1
    20    45    46    1
    21    15    16   ar
    22    15    20   ar
    23    15     6    1
    24    16    17   ar
    25    16    21    2
    26    17    18   ar
    27    17    23    1
    28    18    19   ar
    29    18    22    2
    30    19    20   ar
    31     6     7    1
    32     6    11    1
    33     7     8    1
    34     7     9    1
    35     8    13    1
    36     9    10    1
    37     9    12    1
    38    10    11    1
    39    10     5    1
    40    12    14    1
    41     5     4    1
    42     4     1    1
    43     1     2    2
    44     1     3    1
    45     1    24    1
    46    24    25    1
    47    25    26    2
    48    25    27    1
@<TRIPOS>MOLECULE
UD1
 46 48 0 0 0
SMALL
GASTEIGER

@<TRIPOS>ATOM
      1 P          21.9207   70.4669   -0.2877 P.3     1  UNL1        0.2189
      2 O          22.7472   71.5121   -0.9305 O.2     1  UNL1       -0.5170
      3 O          22.8469   69.2031    0.0836 O.3     1  UNL1       -0.4371
      4 O          20.7608   70.0010   -1.3027 O.3     1  UNL1       -0.3112
      5 C          20.9145   70.7779   -2.4915 C.3     1  UNL1        0.1811
      6 C          18.3850   71.0738   -5.0295 C.3     1  UNL1        0.2383
      7 C          18.0761   69.7271   -4.3287 C.3     1  UNL1        0.1895
      8 O          16.6765   69.4452   -4.3574 O.3     1  UNL1       -0.3779
      9 C          18.5567   69.9966   -2.8790 C.3     1  UNL1        0.1713
     10 C          19.5369   71.1768   -3.0229 C.3     1  UNL1        0.1764
     11 O          19.6256   71.4934   -4.4226 O.3     1  UNL1       -0.3308
     12 O          17.4528   70.3535   -2.0442 O.3     1  UNL1       -0.3794
     13 H          16.5521   68.5978   -3.9079 H       1  UNL1        0.2106
     14 H          16.8485   69.5992   -2.0427 H       1  UNL1        0.2105
     15 N          18.5540   70.8828   -6.4704 N.ar    1  UNL1       -0.2551
     16 C          17.4730   70.8453   -7.2689 C.ar    1  UNL1        0.3323
     17 N          17.5988   70.6748   -8.5983 N.ar    1  UNL1       -0.2743
     18 C          18.8194   70.5287   -9.1521 C.ar    1  UNL1        0.2626
     19 C          19.9655   70.5602   -8.3225 C.ar    1  UNL1        0.0795
     20 C          19.8109   70.7380   -6.9929 C.ar    1  UNL1        0.0869
     21 O          16.3654   70.9756   -6.7843 O.2     1  UNL1       -0.2464
     22 O          18.9340   70.3697  -10.3533 O.2     1  UNL1       -0.2670
     23 H          16.8085   70.6550   -9.1598 H       1  UNL1        0.1734
     24 O          21.2551   71.0578    1.0527 O.3     1  UNL1       -0.2703
     25 P          21.7356   72.5887    1.1743 P.3     1  UNL1        0.2208
     26 O          20.7071   73.4764    0.5885 O.2     1  UNL1       -0.5170
     27 O          23.1238   72.7809    0.3817 O.3     1  UNL1       -0.4371
     28 O          21.9483   72.9642    2.7249 O.3     1  UNL1       -0.2865
     29 C          21.7333   74.3716    2.8439 C.3     1  UNL1        0.2611
     30 C          22.9815   75.0245    3.4403 C.3     1  UNL1        0.1582
     31 C          23.2654   74.4026    4.8123 C.3     1  UNL1        0.1625
     32 C          22.0003   74.5097    5.6703 C.3     1  UNL1        0.1686
     33 C          20.8266   73.8928    4.9066 C.3     1  UNL1        0.1760
     34 O          24.3373   75.1052    5.4439 O.3     1  UNL1       -0.3801
     35 O          22.1952   73.8069    6.8989 O.3     1  UNL1       -0.3794
     36 O          20.6117   74.6097    3.6916 O.3     1  UNL1       -0.3263
     37 H          24.4820   74.6818    6.3013 H       1  UNL1        0.2105
     38 H          21.3766   73.8991    7.4068 H       1  UNL1        0.2105
     39 C          24.6298   75.8166    1.8310 C.2     1  UNL1        0.2231
     40 C          25.8058   75.5829    0.9174 C.3     1  UNL1        0.0946
     41 N          24.1243   74.7981    2.5531 N.am    1  UNL1       -0.2994
     42 O          24.1379   76.9216    1.9155 O.2     1  UNL1       -0.2751
     43 H          24.5176   73.9137    2.4855 H       1  UNL1        0.1496
     44 C          19.5644   73.9654    5.7685 C.3     1  UNL1        0.1693
     45 O          18.9449   75.2421    5.6000 O.3     1  UNL1       -0.3794
     46 H          18.1560   75.2463    6.1588 H       1  UNL1        0.2105
@<TRIPOS>BOND
     1    29    30    1
     2    29    28    1
     3    29    36    1
     4    30    31    1
     5    30    41    1
     6    31    32    1
     7    31    34    1
     8    32    33    1
     9    32    35    1
    10    33    44    1
    11    33    36    1
    12    44    45    1
    13    39    40    1
    14    39    41   am
    15    39    42    2
    16    41    43    1
    17    28    25    1
    18    34    37    1
    19    35    38    1
    20    45    46    1
    21    15    16   ar
    22    15    20   ar
    23    15     6    1
    24    16    17   ar
    25    16    21    2
    26    17    18   ar
    27    17    23    1
    28    18    19   ar
    29    18    22    2
    30    19    20   ar
    31     6     7    1
    32     6    11    1
    33     7     8    1
    34     7     9    1
    35     8    13    1
    36     9    10    1
    37     9    12    1
    38    10    11    1
    39    10     5    1
    40    12    14    1
    41     5     4    1
    42     4     1    1
    43     1     2    2
    44     1     3    1
    45     1    24    1
    46    24    25    1
    47    25    26    2
    48    25    27    1
@<TRIPOS>MOLECULE
UD1
 46 48 0 0 0
SMALL
GASTEIGER

@<TRIPOS>ATOM
      1 P          21.9806   70.9339   -1.2261 P.3     1  UNL1        0.2189
      2 O          22.6691   70.7361   -2.5205 O.2     1  UNL1       -0.5170
      3 O          22.0252   69.5650   -0.3796 O.3     1  UNL1       -0.4371
      4 O          20.4478   71.3494   -1.4922 O.3     1  UNL1       -0.3112
      5 C          20.4218   72.0669   -2.7271 C.3     1  UNL1        0.1811
      6 C          18.0604   71.3110   -5.3308 C.3     1  UNL1        0.2383
      7 C          18.1004   70.0307   -4.4594 C.3     1  UNL1        0.1895
      8 O          16.8393   69.3609   -4.4769 O.3     1  UNL1       -0.3779
      9 C          18.4025   70.6049   -3.0508 C.3     1  UNL1        0.1713
     10 C          19.0205   71.9876   -3.3347 C.3     1  UNL1        0.1764
     11 O          19.0975   72.1387   -4.7625 O.3     1  UNL1       -0.3308
     12 O          17.1969   70.7344   -2.2941 O.3     1  UNL1       -0.3794
     13 H          16.9310   68.5764   -3.9187 H       1  UNL1        0.2106
     14 H          16.8284   69.8457   -2.2017 H       1  UNL1        0.2105
     15 N          18.3584   70.9974   -6.7288 N.ar    1  UNL1       -0.2551
     16 C          17.3527   70.7400   -7.5829 C.ar    1  UNL1        0.3323
     17 N          17.5971   70.4524   -8.8751 N.ar    1  UNL1       -0.2743
     18 C          18.8644   70.4088   -9.3335 C.ar    1  UNL1        0.2626
     19 C          19.9330   70.6718   -8.4437 C.ar    1  UNL1        0.0795
     20 C          19.6591   70.9628   -7.1539 C.ar    1  UNL1        0.0869
     21 O          16.2043   70.7756   -7.1845 O.2     1  UNL1       -0.2464
     22 O          19.0868   70.1442  -10.5005 O.2     1  UNL1       -0.2670
     23 H          16.8592   70.2741   -9.4783 H       1  UNL1        0.1734
     24 O          22.7170   72.1015   -0.3994 O.3     1  UNL1       -0.2703
     25 P          21.8372   72.3610    0.9226 P.3     1  UNL1        0.2208
     26 O          21.3418   71.0693    1.4468 O.2     1  UNL1       -0.5170
     27 O          20.5862   73.3068    0.5585 O.3     1  UNL1       -0.4371
     28 O          22.7448   73.0808    2.0401 O.3     1  UNL1       -0.2865
     29 C          22.4426   74.4760    1.9839 C.3     1  UNL1        0.2611
     30 C          23.7375   75.2657    1.7849 C.3     1  UNL1        0.1582
     31 C          24.6914   74.9651    2.9465 C.3     1  UNL1        0.1625
     32 C          23.9588   75.2355    4.2649 C.3     1  UNL1        0.1686
     33 C          22.6484   74.4455    4.2780 C.3     1  UNL1        0.1760
     34 O          25.8413   75.8079    2.8522 O.3     1  UNL1       -0.3801
     35 O          24.7782   74.8229    5.3603 O.3     1  UNL1       -0.3794
     36 O          21.8160   74.8746    3.2012 O.3     1  UNL1       -0.3263
     37 H          26.4128   75.5854    3.6000 H       1  UNL1        0.2105
     38 H          24.2797   75.0098    6.1685 H       1  UNL1        0.2105
     39 C          24.9237   75.8016   -0.2742 C.2     1  UNL1        0.2231
     40 C          25.5672   75.3941   -1.5751 C.3     1  UNL1        0.0946
     41 N          24.3632   74.8704    0.5214 N.am    1  UNL1       -0.2994
     42 O          24.9098   76.9681    0.0561 O.2     1  UNL1       -0.2751
     43 H          24.3739   73.9368    0.2571 H       1  UNL1        0.1496
     44 C          21.9243   74.6833    5.6048 C.3     1  UNL1        0.1693
     45 O          22.3079   73.6772    6.5443 O.3     1  UNL1       -0.3794
     46 H          21.8303   73.8631    7.3640 H       1  UNL1        0.2105
@<TRIPOS>BOND
     1    29    30    1
     2    29    28    1
     3    29    36    1
     4    30    31    1
     5    30    41    1
     6    31    32    1
     7    31    34    1
     8    32    33    1
     9    32    35    1
    10    33    44    1
    11    33    36    1
    12    44    45    1
    13    39    40    1
    14    39    41   am
    15    39    42    2
    16    41    43    1
    17    28    25    1
    18    34    37    1
    19    35    38    1
    20    45    46    1
    21    15    16   ar
    22    15    20   ar
    23    15     6    1
    24    16    17   ar
    25    16    21    2
    26    17    18   ar
    27    17    23    1
    28    18    19   ar
    29    18    22    2
    30    19    20   ar
    31     6     7    1
    32     6    11    1
    33     7     8    1
    34     7     9    1
    35     8    13    1
    36     9    10    1
    37     9    12    1
    38    10    11    1
    39    10     5    1
    40    12    14    1
    41     5     4    1
    42     4     1    1
    43     1     2    2
    44     1     3    1
    45     1    24    1
    46    24    25    1
    47    25    26    2
    48    25    27    1
@<TRIPOS>MOLECULE
UD1
 46 48 0 0 0
SMALL
GASTEIGER

@<TRIPOS>ATOM
      1 P          21.5307   70.8148   -0.5039 P.3     1  UNL1        0.2189
      2 O          22.9182   71.2273   -0.8096 O.2     1  UNL1       -0.5170
      3 O          21.5486   69.6632    0.6212 O.3     1  UNL1       -0.4371
      4 O          20.8334   70.2476   -1.8399 O.3     1  UNL1       -0.3112
      5 C          20.7867   71.3280   -2.7731 C.3     1  UNL1        0.1811
      6 C          18.2669   71.0707   -5.3249 C.3     1  UNL1        0.2383
      7 C          18.1791   69.7286   -4.5560 C.3     1  UNL1        0.1895
      8 O          16.8460   69.2171   -4.5712 O.3     1  UNL1       -0.3779
      9 C          18.5948   70.1473   -3.1217 C.3     1  UNL1        0.1713
     10 C          19.3670   71.4651   -3.3254 C.3     1  UNL1        0.1764
     11 O          19.4151   71.7207   -4.7395 O.3     1  UNL1       -0.3308
     12 O          17.4394   70.3577   -2.3072 O.3     1  UNL1       -0.3794
     13 H          16.8596   68.3847   -4.0788 H       1  UNL1        0.2106
     14 H          16.9686   69.5146   -2.2673 H       1  UNL1        0.2105
     15 N          18.4786   70.8377   -6.7540 N.ar    1  UNL1       -0.2551
     16 C          17.4196   70.7021   -7.5710 C.ar    1  UNL1        0.3323
     17 N          17.5846   70.4909   -8.8903 N.ar    1  UNL1       -0.2743
     18 C          18.8236   70.4024   -9.4146 C.ar    1  UNL1        0.2626
     19 C          19.9473   70.5373   -8.5648 C.ar    1  UNL1        0.0795
     20 C          19.7532   70.7539   -7.2462 C.ar    1  UNL1        0.0869
     21 O          16.2958   70.7795   -7.1131 O.2     1  UNL1       -0.2464
     22 O          18.9739   70.2067  -10.6064 O.2     1  UNL1       -0.2670
     23 H          16.8094   70.4002   -9.4657 H       1  UNL1        0.1734
     24 O          20.7009   72.0826    0.0374 O.3     1  UNL1       -0.2703
     25 P          21.4877   72.6370    1.3270 P.3     1  UNL1        0.2208
     26 O          22.9455   72.5562    1.0876 O.2     1  UNL1       -0.5170
     27 O          21.1057   71.7470    2.6132 O.3     1  UNL1       -0.4371
     28 O          21.0718   74.1688    1.5934 O.3     1  UNL1       -0.2865
     29 C          20.7886   74.7491    0.3190 C.3     1  UNL1        0.2611
     30 C          21.6908   75.9660    0.1064 C.3     1  UNL1        0.1582
     31 C          21.4399   76.9783    1.2297 C.3     1  UNL1        0.1625
     32 C          19.9391   77.2818    1.2897 C.3     1  UNL1        0.1686
     33 C          19.1691   75.9656    1.4162 C.3     1  UNL1        0.1760
     34 O          22.1645   78.1802    0.9618 O.3     1  UNL1       -0.3801
     35 O          19.6637   78.1089    2.4218 O.3     1  UNL1       -0.3794
     36 O          19.4204   75.1484    0.2736 O.3     1  UNL1       -0.3263
     37 H          21.9786   78.7871    1.6914 H       1  UNL1        0.2105
     38 H          18.7102   78.2746    2.4219 H       1  UNL1        0.2105
     39 C          23.8721   75.7365   -0.9535 C.2     1  UNL1        0.2231
     40 C          25.3158   75.3033   -0.9300 C.3     1  UNL1        0.0946
     41 N          23.0934   75.5458    0.1289 N.am    1  UNL1       -0.2994
     42 O          23.4111   76.2561   -1.9473 O.2     1  UNL1       -0.2751
     43 H          23.4620   75.1298    0.9242 H       1  UNL1        0.1496
     44 C          17.6705   76.2598    1.5096 C.3     1  UNL1        0.1693
     45 O          17.0680   76.0780    0.2266 O.3     1  UNL1       -0.3794
     46 H          16.1267   76.2731    0.3293 H       1  UNL1        0.2105
@<TRIPOS>BOND
     1    29    30    1
     2    29    28    1
     3    29    36    1
     4    30    31    1
     5    30    41    1
     6    31    32    1
     7    31    34    1
     8    32    33    1
     9    32    35    1
    10    33    44    1
    11    33    36    1
    12    44    45    1
    13    39    40    1
    14    39    41   am
    15    39    42    2
    16    41    43    1
    17    28    25    1
    18    34    37    1
    19    35    38    1
    20    45    46    1
    21    15    16   ar
    22    15    20   ar
    23    15     6    1
    24    16    17   ar
    25    16    21    2
    26    17    18   ar
    27    17    23    1
    28    18    19   ar
    29    18    22    2
    30    19    20   ar
    31     6     7    1
    32     6    11    1
    33     7     8    1
    34     7     9    1
    35     8    13    1
    36     9    10    1
    37     9    12    1
    38    10    11    1
    39    10     5    1
    40    12    14    1
    41     5     4    1
    42     4     1    1
    43     1     2    2
    44     1     3    1
    45     1    24    1
    46    24    25    1
    47    25    26    2
    48    25    27    1
@<TRIPOS>MOLECULE
UD1
 46 48 0 0 0
SMALL
GASTEIGER

@<TRIPOS>ATOM
      1 P          22.3252   70.9885   -2.2282 P.3     1  UNL1        0.2189
      2 O          21.9052   69.8855   -1.3362 O.2     1  UNL1       -0.5170
      3 O          23.5531   70.4978   -3.1469 O.3     1  UNL1       -0.4371
      4 O          22.7908   72.2484   -1.3402 O.3     1  UNL1       -0.3112
      5 C          21.8167   72.4098   -0.3079 C.3     1  UNL1        0.1811
      6 C          22.1316   74.9048    2.2617 C.3     1  UNL1        0.2383
      7 C          23.5724   74.7172    1.7242 C.3     1  UNL1        0.1895
      8 O          24.3189   75.9300    1.8287 O.3     1  UNL1       -0.3779
      9 C          23.3205   74.3487    0.2389 C.3     1  UNL1        0.1713
     10 C          21.8645   73.8444    0.2201 C.3     1  UNL1        0.1764
     11 O          21.3786   73.8840    1.5727 O.3     1  UNL1       -0.3308
     12 O          23.4686   75.5004   -0.5943 O.3     1  UNL1       -0.3794
     13 H          25.2021   75.7464    1.4797 H       1  UNL1        0.2106
     14 H          24.3810   75.8028   -0.4932 H       1  UNL1        0.2105
     15 N          22.0852   74.6921    3.7088 N.ar    1  UNL1       -0.2551
     16 C          22.2606   73.4556    4.2065 C.ar    1  UNL1        0.3323
     17 N          22.2270   73.2313    5.5334 N.ar    1  UNL1       -0.2743
     18 C          22.0061   74.2494    6.3893 C.ar    1  UNL1        0.2626
     19 C          21.8139   75.5552    5.8785 C.ar    1  UNL1        0.0795
     20 C          21.8580   75.7529    4.5435 C.ar    1  UNL1        0.0869
     21 O          22.4609   72.5270    3.4473 O.2     1  UNL1       -0.2464
     22 O          21.9707   74.0470    7.5889 O.2     1  UNL1       -0.2670
     23 H          22.3602   72.3337    5.8752 H       1  UNL1        0.1734
     24 O          21.0910   71.4200   -3.1660 O.3     1  UNL1       -0.2703
     25 P          21.6375   72.5644   -4.1563 P.3     1  UNL1        0.2208
     26 O          23.0849   72.3651   -4.3893 O.2     1  UNL1       -0.5170
     27 O          21.3960   74.0107   -3.4914 O.3     1  UNL1       -0.4371
     28 O          20.8521   72.4823   -5.5588 O.3     1  UNL1       -0.2865
     29 C          19.4663   72.6749   -5.2696 C.3     1  UNL1        0.2611
     30 C          18.6708   71.4752   -5.7871 C.3     1  UNL1        0.1582
     31 C          18.8946   71.3392   -7.2974 C.3     1  UNL1        0.1625
     32 C          18.5630   72.6782   -7.9646 C.3     1  UNL1        0.1686
     33 C          19.3690   73.7870   -7.2846 C.3     1  UNL1        0.1760
     34 O          18.0424   70.3172   -7.8177 O.3     1  UNL1       -0.3801
     35 O          18.9040   72.6189   -9.3509 O.3     1  UNL1       -0.3794
     36 O          19.0108   73.8671   -5.9056 O.3     1  UNL1       -0.3263
     37 H          18.2159   70.2655   -8.7677 H       1  UNL1        0.2105
     38 H          18.6803   73.4803   -9.7311 H       1  UNL1        0.2105
     39 C          18.3169   69.6291   -4.2376 C.2     1  UNL1        0.2231
     40 C          18.7858   68.3763   -3.5427 C.3     1  UNL1        0.0946
     41 N          19.1257   70.2578   -5.1122 N.am    1  UNL1       -0.2994
     42 O          17.2115   70.0718   -4.0088 O.2     1  UNL1       -0.2751
     43 H          20.0104   69.9039   -5.2953 H       1  UNL1        0.1496
     44 C          19.0694   75.1242   -7.9651 C.3     1  UNL1        0.1693
     45 O          17.8332   75.0311   -8.6759 O.3     1  UNL1       -0.3794
     46 H          17.6824   75.8920   -9.0890 H       1  UNL1        0.2105
@<TRIPOS>BOND
     1    29    30    1
     2    29    28    1
     3    29    36    1
     4    30    31    1
     5    30    41    1
     6    31    32    1
     7    31    34    1
     8    32    33    1
     9    32    35    1
    10    33    44    1
    11    33    36    1
    12    44    45    1
    13    39    40    1
    14    39    41   am
    15    39    42    2
    16    41    43    1
    17    28    25    1
    18    34    37    1
    19    35    38    1
    20    45    46    1
    21    15    16   ar
    22    15    20   ar
    23    15     6    1
    24    16    17   ar
    25    16    21    2
    26    17    18   ar
    27    17    23    1
    28    18    19   ar
    29    18    22    2
    30    19    20   ar
    31     6     7    1
    32     6    11    1
    33     7     8    1
    34     7     9    1
    35     8    13    1
    36     9    10    1
    37     9    12    1
    38    10    11    1
    39    10     5    1
    40    12    14    1
    41     5     4    1
    42     4     1    1
    43     1     2    2
    44     1     3    1
    45     1    24    1
    46    24    25    1
    47    25    26    2
    48    25    27    1
@<TRIPOS>MOLECULE
UD1
 46 48 0 0 0
SMALL
GASTEIGER

@<TRIPOS>ATOM
      1 P          21.8370   70.3505   -0.4604 P.3     1  UNL1        0.2189
      2 O          23.1150   70.7387   -1.0966 O.2     1  UNL1       -0.5170
      3 O          22.1070   69.1895    0.6220 O.3     1  UNL1       -0.4371
      4 O          20.8211   69.8079   -1.5857 O.3     1  UNL1       -0.3112
      5 C          20.9751   70.6550   -2.7255 C.3     1  UNL1        0.1811
      6 C          18.4200   71.0018   -5.2312 C.3     1  UNL1        0.2383
      7 C          18.0993   69.6563   -4.5334 C.3     1  UNL1        0.1895
      8 O          16.6953   69.3956   -4.5465 O.3     1  UNL1       -0.3779
      9 C          18.6013   69.9112   -3.0883 C.3     1  UNL1        0.1713
     10 C          19.5974   71.0773   -3.2382 C.3     1  UNL1        0.1764
     11 O          19.6741   71.3996   -4.6373 O.3     1  UNL1       -0.3308
     12 O          17.5131   70.2804   -2.2384 O.3     1  UNL1       -0.3794
     13 H          16.5636   68.5480   -4.0997 H       1  UNL1        0.2106
     14 H          16.8975   69.5353   -2.2333 H       1  UNL1        0.2105
     15 N          18.5687   70.8156   -6.6750 N.ar    1  UNL1       -0.2551
     16 C          17.4767   70.7813   -7.4584 C.ar    1  UNL1        0.3323
     17 N          17.5838   70.6152   -8.7900 N.ar    1  UNL1       -0.2743
     18 C          18.7965   70.4706   -9.3613 C.ar    1  UNL1        0.2626
     19 C          19.9541   70.4989   -8.5477 C.ar    1  UNL1        0.0795
     20 C          19.8182   70.6721   -7.2154 C.ar    1  UNL1        0.0869
     21 O          16.3760   70.9103   -6.9579 O.2     1  UNL1       -0.2464
     22 O          18.8942   70.3157  -10.5646 O.2     1  UNL1       -0.2670
     23 H          16.7857   70.5977   -9.3404 H       1  UNL1        0.1734
     24 O          21.1921   71.6295    0.2726 O.3     1  UNL1       -0.2703
     25 P          22.0133   71.8449    1.6396 P.3     1  UNL1        0.2208
     26 O          22.7651   70.6124    1.9627 O.2     1  UNL1       -0.5170
     27 O          20.9880   72.1764    2.8358 O.3     1  UNL1       -0.4371
     28 O          23.0421   73.0698    1.4617 O.3     1  UNL1       -0.2865
     29 C          22.2928   74.1678    0.9381 C.3     1  UNL1        0.2611
     30 C          23.0697   74.8050   -0.2154 C.3     1  UNL1        0.1582
     31 C          24.4338   75.2775    0.2997 C.3     1  UNL1        0.1625
     32 C          24.2117   76.1836    1.5153 C.3     1  UNL1        0.1686
     33 C          23.3511   75.4411    2.5397 C.3     1  UNL1        0.1760
     34 O          25.1075   76.0063   -0.7282 O.3     1  UNL1       -0.3801
     35 O          25.4722   76.5167    2.0998 O.3     1  UNL1       -0.3794
     36 O          22.0809   75.1310    1.9679 O.3     1  UNL1       -0.3263
     37 H          25.9587   76.2835   -0.3621 H       1  UNL1        0.2105
     38 H          25.2864   77.0859    2.8601 H       1  UNL1        0.2105
     39 C          23.1626   74.1909   -2.5709 C.2     1  UNL1        0.2231
     40 C          23.3604   73.1750   -3.6668 C.3     1  UNL1        0.0946
     41 N          23.2622   73.8185   -1.2804 N.am    1  UNL1       -0.2994
     42 O          22.9129   75.3439   -2.8510 O.2     1  UNL1       -0.2751
     43 H          23.4618   72.8958   -1.0560 H       1  UNL1        0.1496
     44 C          23.1504   76.3255    3.7720 C.3     1  UNL1        0.1693
     45 O          24.1750   76.0492    4.7291 O.3     1  UNL1       -0.3794
     46 H          24.0119   76.6256    5.4879 H       1  UNL1        0.2105
@<TRIPOS>BOND
     1    29    30    1
     2    29    28    1
     3    29    36    1
     4    30    31    1
     5    30    41    1
     6    31    32    1
     7    31    34    1
     8    32    33    1
     9    32    35    1
    10    33    44    1
    11    33    36    1
    12    44    45    1
    13    39    40    1
    14    39    41   am
    15    39    42    2
    16    41    43    1
    17    28    25    1
    18    34    37    1
    19    35    38    1
    20    45    46    1
    21    15    16   ar
    22    15    20   ar
    23    15     6    1
    24    16    17   ar
    25    16    21    2
    26    17    18   ar
    27    17    23    1
    28    18    19   ar
    29    18    22    2
    30    19    20   ar
    31     6     7    1
    32     6    11    1
    33     7     8    1
    34     7     9    1
    35     8    13    1
    36     9    10    1
    37     9    12    1
    38    10    11    1
    39    10     5    1
    40    12    14    1
    41     5     4    1
    42     4     1    1
    43     1     2    2
    44     1     3    1
    45     1    24    1
    46    24    25    1
    47    25    26    2
    48    25    27    1
@<TRIPOS>MOLECULE
UD1
 46 48 0 0 0
SMALL
GASTEIGER

@<TRIPOS>ATOM
      1 P          20.4555   70.0825   -2.1007 P.3     1  UNL1        0.2189
      2 O          21.6309   69.5812   -2.8463 O.2     1  UNL1       -0.5170
      3 O          19.1993   69.1096   -2.3619 O.3     1  UNL1       -0.4371
      4 O          20.0954   71.5690   -2.6041 O.3     1  UNL1       -0.3112
      5 C          18.6748   71.6263   -2.7428 C.3     1  UNL1        0.1811
      6 C          18.0641   72.8717   -6.0599 C.3     1  UNL1        0.2383
      7 C          16.6708   72.4255   -5.5501 C.3     1  UNL1        0.1895
      8 O          15.6365   73.2261   -6.1232 O.3     1  UNL1       -0.3779
      9 C          16.7857   72.6791   -4.0245 C.3     1  UNL1        0.1713
     10 C          18.3040   72.7043   -3.7624 C.3     1  UNL1        0.1764
     11 O          18.9604   72.4399   -5.0140 O.3     1  UNL1       -0.3308
     12 O          16.1912   73.9322   -3.6794 O.3     1  UNL1       -0.3794
     13 H          14.7989   72.8984   -5.7674 H       1  UNL1        0.2106
     14 H          15.2573   73.8743   -3.9215 H       1  UNL1        0.2105
     15 N          18.3904   72.2115   -7.3245 N.ar    1  UNL1       -0.2551
     16 C          17.8725   71.0013   -7.5973 C.ar    1  UNL1        0.3323
     17 N          18.1523   70.3724   -8.7542 N.ar    1  UNL1       -0.2743
     18 C          18.9696   70.9471   -9.6596 C.ar    1  UNL1        0.2626
     19 C          19.5266   72.2183   -9.3825 C.ar    1  UNL1        0.0795
     20 C          19.2250   72.8291   -8.2166 C.ar    1  UNL1        0.0869
     21 O          17.1336   70.4701   -6.7908 O.2     1  UNL1       -0.2464
     22 O          19.2271   70.3773  -10.7038 O.2     1  UNL1       -0.2670
     23 H          17.7661   69.5019   -8.9366 H       1  UNL1        0.1734
     24 O          20.7919   70.1156   -0.5277 O.3     1  UNL1       -0.2703
     25 P          22.3391   70.5366   -0.3920 P.3     1  UNL1        0.2208
     26 O          22.8887   70.8340   -1.7330 O.2     1  UNL1       -0.5170
     27 O          23.1690   69.3267    0.2710 O.3     1  UNL1       -0.4371
     28 O          22.4613   71.8432    0.5399 O.3     1  UNL1       -0.2865
     29 C          21.1544   72.1115    1.0510 C.3     1  UNL1        0.2611
     30 C          20.7911   73.5702    0.7680 C.3     1  UNL1        0.1582
     31 C          21.8292   74.4829    1.4305 C.3     1  UNL1        0.1625
     32 C          21.9318   74.1125    2.9139 C.3     1  UNL1        0.1686
     33 C          22.2121   72.6132    3.0349 C.3     1  UNL1        0.1760
     34 O          21.4206   75.8459    1.3011 O.3     1  UNL1       -0.3801
     35 O          22.9965   74.8495    3.5180 O.3     1  UNL1       -0.3794
     36 O          21.1373   71.8735    2.4569 O.3     1  UNL1       -0.3263
     37 H          22.1005   76.3834    1.7301 H       1  UNL1        0.2105
     38 H          23.0262   74.5860    4.4487 H       1  UNL1        0.2105
     39 C          21.8898   74.2721   -1.2899 C.2     1  UNL1        0.2231
     40 C          21.8835   74.5111   -2.7782 C.3     1  UNL1        0.0946
     41 N          20.7858   73.8021   -0.6779 N.am    1  UNL1       -0.2994
     42 O          22.8887   74.5036   -0.6428 O.2     1  UNL1       -0.2751
     43 H          19.9861   73.6170   -1.1954 H       1  UNL1        0.1496
     44 C          22.3487   72.2387    4.5122 C.3     1  UNL1        0.1693
     45 O          21.3529   72.9262    5.2723 O.3     1  UNL1       -0.3794
     46 H          21.4739   72.6633    6.1947 H       1  UNL1        0.2105
@<TRIPOS>BOND
     1    29    30    1
     2    29    28    1
     3    29    36    1
     4    30    31    1
     5    30    41    1
     6    31    32    1
     7    31    34    1
     8    32    33    1
     9    32    35    1
    10    33    44    1
    11    33    36    1
    12    44    45    1
    13    39    40    1
    14    39    41   am
    15    39    42    2
    16    41    43    1
    17    28    25    1
    18    34    37    1
    19    35    38    1
    20    45    46    1
    21    15    16   ar
    22    15    20   ar
    23    15     6    1
    24    16    17   ar
    25    16    21    2
    26    17    18   ar
    27    17    23    1
    28    18    19   ar
    29    18    22    2
    30    19    20   ar
    31     6     7    1
    32     6    11    1
    33     7     8    1
    34     7     9    1
    35     8    13    1
    36     9    10    1
    37     9    12    1
    38    10    11    1
    39    10     5    1
    40    12    14    1
    41     5     4    1
    42     4     1    1
    43     1     2    2
    44     1     3    1
    45     1    24    1
    46    24    25    1
    47    25    26    2
    48    25    27    1
@<TRIPOS>MOLECULE
UD1
 46 48 0 0 0
SMALL
GASTEIGER

@<TRIPOS>ATOM
      1 P          22.9715   71.8814   -3.1730 P.3     1  UNL1        0.2189
      2 O          23.6242   70.5538   -3.1841 O.2     1  UNL1       -0.5170
      3 O          23.6969   72.8451   -4.2396 O.3     1  UNL1       -0.4371
      4 O          23.0906   72.5250   -1.7018 O.3     1  UNL1       -0.3112
      5 C          22.4187   71.6379   -0.8063 C.3     1  UNL1        0.1811
      6 C          20.5976   73.3780    1.7594 C.3     1  UNL1        0.2383
      7 C          21.2183   74.5026    0.8933 C.3     1  UNL1        0.1895
      8 O          20.3874   75.6640    0.8916 O.3     1  UNL1       -0.3779
      9 C          21.2567   73.8477   -0.5120 C.3     1  UNL1        0.1713
     10 C          21.1894   72.3357   -0.2223 C.3     1  UNL1        0.1764
     11 O          21.1669   72.1725    1.2060 O.3     1  UNL1       -0.3308
     12 O          20.1325   74.2652   -1.2895 O.3     1  UNL1       -0.3794
     13 H          20.8283   76.3231    0.3378 H       1  UNL1        0.2106
     14 H          20.1999   75.2246   -1.3851 H       1  UNL1        0.2105
     15 N          20.9806   73.5323    3.1633 N.ar    1  UNL1       -0.2551
     16 C          22.2537   73.3123    3.5347 C.ar    1  UNL1        0.3323
     17 N          22.6351   73.4506    4.8183 N.ar    1  UNL1       -0.2743
     18 C          21.7372   73.8056    5.7595 C.ar    1  UNL1        0.2626
     19 C          20.3923   74.0346    5.3833 C.ar    1  UNL1        0.0795
     20 C          20.0380   73.8939    4.0879 C.ar    1  UNL1        0.0869
     21 O          23.0752   72.9915    2.6975 O.2     1  UNL1       -0.2464
     22 O          22.0799   73.9263    6.9211 O.2     1  UNL1       -0.2670
     23 H          23.5587   73.2925    5.0677 H       1  UNL1        0.1734
     24 O          21.4190   71.7195   -3.5636 O.3     1  UNL1       -0.2703
     25 P          21.1839   72.5820   -4.9015 P.3     1  UNL1        0.2208
     26 O          22.4488   72.6632   -5.6646 O.2     1  UNL1       -0.5170
     27 O          20.7004   74.0660   -4.5062 O.3     1  UNL1       -0.4371
     28 O          20.0560   71.8749   -5.8061 O.3     1  UNL1       -0.2865
     29 C          19.0857   72.8765   -6.1168 C.3     1  UNL1        0.2611
     30 C          17.6838   72.3130   -5.8776 C.3     1  UNL1        0.1582
     31 C          17.4843   71.0747   -6.7586 C.3     1  UNL1        0.1625
     32 C          17.7968   71.4509   -8.2108 C.3     1  UNL1        0.1686
     33 C          19.1916   72.0767   -8.2744 C.3     1  UNL1        0.1760
     34 O          16.1311   70.6276   -6.6569 O.3     1  UNL1       -0.3801
     35 O          17.7598   70.2785   -9.0268 O.3     1  UNL1       -0.3794
     36 O          19.2242   73.2633   -7.4823 O.3     1  UNL1       -0.3263
     37 H          16.0506   69.8491   -7.2250 H       1  UNL1        0.2105
     38 H          17.9623   70.5600   -9.9303 H       1  UNL1        0.2105
     39 C          16.3585   72.1127   -3.8435 C.2     1  UNL1        0.2231
     40 C          16.2102   71.7302   -2.3929 C.3     1  UNL1        0.0946
     41 N          17.5391   71.9411   -4.4686 N.am    1  UNL1       -0.2994
     42 O          15.4148   72.5758   -4.4479 O.2     1  UNL1       -0.2751
     43 H          18.2945   71.5708   -3.9851 H       1  UNL1        0.1496
     44 C          19.5266   72.4265   -9.7258 C.3     1  UNL1        0.1693
     45 O          18.3428   72.8635  -10.3964 O.3     1  UNL1       -0.3794
     46 H          18.5971   73.0730  -11.3052 H       1  UNL1        0.2105
@<TRIPOS>BOND
     1    29    30    1
     2    29    28    1
     3    29    36    1
     4    30    31    1
     5    30    41    1
     6    31    32    1
     7    31    34    1
     8    32    33    1
     9    32    35    1
    10    33    44    1
    11    33    36    1
    12    44    45    1
    13    39    40    1
    14    39    41   am
    15    39    42    2
    16    41    43    1
    17    28    25    1
    18    34    37    1
    19    35    38    1
    20    45    46    1
    21    15    16   ar
    22    15    20   ar
    23    15     6    1
    24    16    17   ar
    25    16    21    2
    26    17    18   ar
    27    17    23    1
    28    18    19   ar
    29    18    22    2
    30    19    20   ar
    31     6     7    1
    32     6    11    1
    33     7     8    1
    34     7     9    1
    35     8    13    1
    36     9    10    1
    37     9    12    1
    38    10    11    1
    39    10     5    1
    40    12    14    1
    41     5     4    1
    42     4     1    1
    43     1     2    2
    44     1     3    1
    45     1    24    1
    46    24    25    1
    47    25    26    2
    48    25    27    1
@<TRIPOS>MOLECULE
UD1
 46 48 0 0 0
SMALL
GASTEIGER

@<TRIPOS>ATOM
      1 P          22.9312   72.2830   -3.4369 P.3     1  UNL1        0.2189
      2 O          22.8362   72.5829   -4.8825 O.2     1  UNL1       -0.5170
      3 O          23.4146   70.7604   -3.2353 O.3     1  UNL1       -0.4371
      4 O          21.4874   72.4816   -2.7522 O.3     1  UNL1       -0.3112
      5 C          20.8204   71.2203   -2.8192 C.3     1  UNL1        0.1811
      6 C          18.2923   71.0893   -5.3724 C.3     1  UNL1        0.2383
      7 C          18.1529   69.7429   -4.6187 C.3     1  UNL1        0.1895
      8 O          16.8010   69.2833   -4.6390 O.3     1  UNL1       -0.3779
      9 C          18.5846   70.1290   -3.1800 C.3     1  UNL1        0.1713
     10 C          19.4070   71.4183   -3.3692 C.3     1  UNL1        0.1764
     11 O          19.4648   71.6879   -4.7803 O.3     1  UNL1       -0.3308
     12 O          17.4382   70.3745   -2.3626 O.3     1  UNL1       -0.3794
     13 H          16.7827   68.4456   -4.1560 H       1  UNL1        0.2106
     14 H          16.9353   69.5498   -2.3319 H       1  UNL1        0.2105
     15 N          18.4947   70.8645   -6.8042 N.ar    1  UNL1       -0.2551
     16 C          17.4305   70.7262   -7.6139 C.ar    1  UNL1        0.3323
     17 N          17.5868   70.5225   -8.9354 N.ar    1  UNL1       -0.2743
     18 C          18.8224   70.4442   -9.4693 C.ar    1  UNL1        0.2626
     19 C          19.9516   70.5820   -8.6274 C.ar    1  UNL1        0.0795
     20 C          19.7660   70.7910   -7.3063 C.ar    1  UNL1        0.0869
     21 O          16.3097   70.7945   -7.1473 O.2     1  UNL1       -0.2464
     22 O          18.9650   70.2552  -10.6632 O.2     1  UNL1       -0.2670
     23 H          16.8080   70.4297   -9.5054 H       1  UNL1        0.1734
     24 O          23.9920   73.2792   -2.7506 O.3     1  UNL1       -0.2703
     25 P          23.1476   74.2996   -1.8368 P.3     1  UNL1        0.2208
     26 O          21.7405   74.3217   -2.2933 O.2     1  UNL1       -0.5170
     27 O          23.7746   75.7773   -1.9613 O.3     1  UNL1       -0.4371
     28 O          23.2061   73.8212   -0.3012 O.3     1  UNL1       -0.2865
     29 C          21.8641   73.8353    0.1888 C.3     1  UNL1        0.2611
     30 C          21.8640   74.2943    1.6480 C.3     1  UNL1        0.1582
     31 C          22.7316   73.3382    2.4742 C.3     1  UNL1        0.1625
     32 C          22.2405   71.9055    2.2413 C.3     1  UNL1        0.1686
     33 C          22.2151   71.6257    0.7372 C.3     1  UNL1        0.1760
     34 O          22.6199   73.6669    3.8602 O.3     1  UNL1       -0.3801
     35 O          23.1252   70.9865    2.8850 O.3     1  UNL1       -0.3794
     36 O          21.3114   72.5242    0.0949 O.3     1  UNL1       -0.3263
     37 H          23.1803   73.0426    4.3414 H       1  UNL1        0.2105
     38 H          22.7802   70.0989    2.7128 H       1  UNL1        0.2105
     39 C          21.5815   76.7015    1.8929 C.2     1  UNL1        0.2231
     40 C          22.1431   78.0975    1.9819 C.3     1  UNL1        0.0946
     41 N          22.4091   75.6507    1.7350 N.am    1  UNL1       -0.2994
     42 O          20.3840   76.5241    1.9629 O.2     1  UNL1       -0.2751
     43 H          23.3674   75.7924    1.6787 H       1  UNL1        0.1496
     44 C          21.7568   70.1861    0.4952 C.3     1  UNL1        0.1693
     45 O          22.8978   69.3291    0.4179 O.3     1  UNL1       -0.3794
     46 H          22.5657   68.4342    0.2649 H       1  UNL1        0.2105
@<TRIPOS>BOND
     1    29    30    1
     2    29    28    1
     3    29    36    1
     4    30    31    1
     5    30    41    1
     6    31    32    1
     7    31    34    1
     8    32    33    1
     9    32    35    1
    10    33    44    1
    11    33    36    1
    12    44    45    1
    13    39    40    1
    14    39    41   am
    15    39    42    2
    16    41    43    1
    17    28    25    1
    18    34    37    1
    19    35    38    1
    20    45    46    1
    21    15    16   ar
    22    15    20   ar
    23    15     6    1
    24    16    17   ar
    25    16    21    2
    26    17    18   ar
    27    17    23    1
    28    18    19   ar
    29    18    22    2
    30    19    20   ar
    31     6     7    1
    32     6    11    1
    33     7     8    1
    34     7     9    1
    35     8    13    1
    36     9    10    1
    37     9    12    1
    38    10    11    1
    39    10     5    1
    40    12    14    1
    41     5     4    1
    42     4     1    1
    43     1     2    2
    44     1     3    1
    45     1    24    1
    46    24    25    1
    47    25    26    2
    48    25    27    1
@<TRIPOS>MOLECULE
UD1
 46 48 0 0 0
SMALL
GASTEIGER

@<TRIPOS>ATOM
      1 P          21.9992   70.4018   -0.3884 P.3     1  UNL1        0.2189
      2 O          22.8828   71.3459   -1.1072 O.2     1  UNL1       -0.5170
      3 O          22.8958   69.3572    0.4467 O.3     1  UNL1       -0.4371
      4 O          21.0935   69.6002   -1.4514 O.3     1  UNL1       -0.3112
      5 C          21.2050   70.2927   -2.6957 C.3     1  UNL1        0.1811
      6 C          18.5891   70.8731   -5.0930 C.3     1  UNL1        0.2383
      7 C          18.2581   69.4870   -4.4852 C.3     1  UNL1        0.1895
      8 O          16.8488   69.2564   -4.4757 O.3     1  UNL1       -0.3779
      9 C          18.8060   69.6255   -3.0410 C.3     1  UNL1        0.1713
     10 C          19.8233   70.7790   -3.1355 C.3     1  UNL1        0.1764
     11 O          19.8678   71.2010   -4.5093 O.3     1  UNL1       -0.3308
     12 O          17.7506   69.9536   -2.1348 O.3     1  UNL1       -0.3794
     13 H          16.7108   68.3813   -4.0877 H       1  UNL1        0.2106
     14 H          17.1189   69.2227   -2.1654 H       1  UNL1        0.2105
     15 N          18.6930   70.7898   -6.5503 N.ar    1  UNL1       -0.2551
     16 C          17.5766   70.7941   -7.2993 C.ar    1  UNL1        0.3323
     17 N          17.6424   70.7226   -8.6419 N.ar    1  UNL1       -0.2743
     18 C          18.8375   70.6356   -9.2600 C.ar    1  UNL1        0.2626
     19 C          20.0205   70.6240   -8.4833 C.ar    1  UNL1        0.0795
     20 C          19.9259   70.7023   -7.1386 C.ar    1  UNL1        0.0869
     21 O          16.4913   70.8722   -6.7565 O.2     1  UNL1       -0.2464
     22 O          18.8980   70.5660  -10.4736 O.2     1  UNL1       -0.2670
     23 H          16.8271   70.7318   -9.1668 H       1  UNL1        0.1734
     24 O          21.0472   71.2188    0.6191 O.3     1  UNL1       -0.2703
     25 P          21.4059   72.7769    0.4369 P.3     1  UNL1        0.2208
     26 O          22.8693   72.9625    0.5498 O.2     1  UNL1       -0.5170
     27 O          20.6670   73.6357    1.5809 O.3     1  UNL1       -0.4371
     28 O          20.9118   73.2769   -1.0109 O.3     1  UNL1       -0.2865
     29 C          21.4524   74.5851   -1.2044 C.3     1  UNL1        0.2611
     30 C          20.3355   75.5332   -1.6444 C.3     1  UNL1        0.1582
     31 C          19.7141   75.0071   -2.9431 C.3     1  UNL1        0.1625
     32 C          20.8314   74.7945   -3.9701 C.3     1  UNL1        0.1686
     33 C          21.9096   73.8995   -3.3555 C.3     1  UNL1        0.1760
     34 O          18.7736   75.9589   -3.4439 O.3     1  UNL1       -0.3801
     35 O          20.2953   74.1672   -5.1366 O.3     1  UNL1       -0.3794
     36 O          22.4664   74.5355   -2.2058 O.3     1  UNL1       -0.3263
     37 H          18.4078   75.5882   -4.2588 H       1  UNL1        0.2105
     38 H          21.0306   74.0516   -5.7550 H       1  UNL1        0.2105
     39 C          18.2279   74.7999   -0.6676 C.2     1  UNL1        0.2231
     40 C          17.1720   74.8688    0.4061 C.3     1  UNL1        0.0946
     41 N          19.3098   75.5994   -0.6014 N.am    1  UNL1       -0.2994
     42 O          18.1031   74.0249   -1.5917 O.2     1  UNL1       -0.2751
     43 H          19.4098   76.2199    0.1379 H       1  UNL1        0.1496
     44 C          23.0148   73.6544   -4.3848 C.3     1  UNL1        0.1693
     45 O          22.7370   72.4521   -5.1056 O.3     1  UNL1       -0.3794
     46 H          23.4555   72.3348   -5.7417 H       1  UNL1        0.2105
@<TRIPOS>BOND
     1    29    30    1
     2    29    28    1
     3    29    36    1
     4    30    31    1
     5    30    41    1
     6    31    32    1
     7    31    34    1
     8    32    33    1
     9    32    35    1
    10    33    44    1
    11    33    36    1
    12    44    45    1
    13    39    40    1
    14    39    41   am
    15    39    42    2
    16    41    43    1
    17    28    25    1
    18    34    37    1
    19    35    38    1
    20    45    46    1
    21    15    16   ar
    22    15    20   ar
    23    15     6    1
    24    16    17   ar
    25    16    21    2
    26    17    18   ar
    27    17    23    1
    28    18    19   ar
    29    18    22    2
    30    19    20   ar
    31     6     7    1
    32     6    11    1
    33     7     8    1
    34     7     9    1
    35     8    13    1
    36     9    10    1
    37     9    12    1
    38    10    11    1
    39    10     5    1
    40    12    14    1
    41     5     4    1
    42     4     1    1
    43     1     2    2
    44     1     3    1
    45     1    24    1
    46    24    25    1
    47    25    26    2
    48    25    27    1
@<TRIPOS>MOLECULE
UD1
 46 48 0 0 0
SMALL
GASTEIGER

@<TRIPOS>ATOM
      1 P          21.0378   70.7429   -2.2032 P.3     1  UNL1        0.2189
      2 O          20.5720   69.9384   -1.0523 O.2     1  UNL1       -0.5170
      3 O          21.8687   69.8039   -3.2133 O.3     1  UNL1       -0.4371
      4 O          21.9856   71.9334   -1.6765 O.3     1  UNL1       -0.3112
      5 C          21.8405   71.9804   -0.2563 C.3     1  UNL1        0.1811
      6 C          21.0333   74.5528    2.1224 C.3     1  UNL1        0.2383
      7 C          22.5732   74.4092    2.2136 C.3     1  UNL1        0.1895
      8 O          23.1830   75.6534    2.5589 O.3     1  UNL1       -0.3779
      9 C          22.9474   73.9919    0.7675 C.3     1  UNL1        0.1713
     10 C          21.6349   73.4291    0.1887 C.3     1  UNL1        0.1764
     11 O          20.6468   73.4847    1.2316 O.3     1  UNL1       -0.3308
     12 O          23.3868   75.1264    0.0173 O.3     1  UNL1       -0.3794
     13 H          24.1365   75.4963    2.5996 H       1  UNL1        0.2106
     14 H          24.1739   75.4677    0.4624 H       1  UNL1        0.2105
     15 N          20.4165   74.3765    3.4377 N.ar    1  UNL1       -0.2551
     16 C          20.9689   73.5308    4.3248 C.ar    1  UNL1        0.3323
     17 N          20.4253   73.3520    5.5433 N.ar    1  UNL1       -0.2743
     18 C          19.3050   74.0164    5.8917 C.ar    1  UNL1        0.2626
     19 C          18.7097   74.9053    4.9653 C.ar    1  UNL1        0.0795
     20 C          19.2788   75.0699    3.7519 C.ar    1  UNL1        0.0869
     21 O          21.9795   72.9244    4.0253 O.2     1  UNL1       -0.2464
     22 O          18.8100   73.8519    6.9914 O.2     1  UNL1       -0.2670
     23 H          20.8398   72.7415    6.1724 H       1  UNL1        0.1734
     24 O          19.7687   71.3671   -2.9704 O.3     1  UNL1       -0.2703
     25 P          18.8996   70.1276   -3.5161 P.3     1  UNL1        0.2208
     26 O          17.9453   69.6965   -2.4710 O.2     1  UNL1       -0.5170
     27 O          19.8799   68.9046   -3.8841 O.3     1  UNL1       -0.4371
     28 O          18.0880   70.5773   -4.8312 O.3     1  UNL1       -0.2865
     29 C          18.7890   71.6893   -5.3908 C.3     1  UNL1        0.2611
     30 C          17.8543   72.8988   -5.4477 C.3     1  UNL1        0.1582
     31 C          16.6299   72.5465   -6.3000 C.3     1  UNL1        0.1625
     32 C          17.1117   72.0302   -7.6600 C.3     1  UNL1        0.1686
     33 C          18.1003   70.8840   -7.4362 C.3     1  UNL1        0.1760
     34 O          15.8237   73.7115   -6.4846 O.3     1  UNL1       -0.3801
     35 O          15.9942   71.5588   -8.4154 O.3     1  UNL1       -0.3794
     36 O          19.2307   71.3581   -6.7056 O.3     1  UNL1       -0.3263
     37 H          15.0668   73.4448   -7.0244 H       1  UNL1        0.2105
     38 H          16.3417   71.2430   -9.2616 H       1  UNL1        0.2105
     39 C          16.2646   72.7664   -3.6066 C.2     1  UNL1        0.2231
     40 C          15.8220   73.1283   -2.2118 C.3     1  UNL1        0.0946
     41 N          17.4241   73.2497   -4.0926 N.am    1  UNL1       -0.2994
     42 O          15.5764   72.0405   -4.2918 O.2     1  UNL1       -0.2751
     43 H          17.9749   73.8309   -3.5445 H       1  UNL1        0.1496
     44 C          18.5628   70.3396   -8.7893 C.3     1  UNL1        0.1693
     45 O          18.5312   71.3872   -9.7607 O.3     1  UNL1       -0.3794
     46 H          18.8287   71.0029  -10.5964 H       1  UNL1        0.2105
@<TRIPOS>BOND
     1    29    30    1
     2    29    28    1
     3    29    36    1
     4    30    31    1
     5    30    41    1
     6    31    32    1
     7    31    34    1
     8    32    33    1
     9    32    35    1
    10    33    44    1
    11    33    36    1
    12    44    45    1
    13    39    40    1
    14    39    41   am
    15    39    42    2
    16    41    43    1
    17    28    25    1
    18    34    37    1
    19    35    38    1
    20    45    46    1
    21    15    16   ar
    22    15    20   ar
    23    15     6    1
    24    16    17   ar
    25    16    21    2
    26    17    18   ar
    27    17    23    1
    28    18    19   ar
    29    18    22    2
    30    19    20   ar
    31     6     7    1
    32     6    11    1
    33     7     8    1
    34     7     9    1
    35     8    13    1
    36     9    10    1
    37     9    12    1
    38    10    11    1
    39    10     5    1
    40    12    14    1
    41     5     4    1
    42     4     1    1
    43     1     2    2
    44     1     3    1
    45     1    24    1
    46    24    25    1
    47    25    26    2
    48    25    27    1
@<TRIPOS>MOLECULE
UD1
 46 48 0 0 0
SMALL
GASTEIGER

@<TRIPOS>ATOM
      1 P          21.7134   70.9410   -2.3305 P.3     1  UNL1        0.2189
      2 O          21.2556   69.5342   -2.3254 O.2     1  UNL1       -0.5170
      3 O          20.5106   71.8985   -1.8521 O.3     1  UNL1       -0.4371
      4 O          22.1655   71.3523   -3.8202 O.3     1  UNL1       -0.3112
      5 C          21.1333   72.1850   -4.3509 C.3     1  UNL1        0.1811
      6 C          19.5919   72.5331   -7.5805 C.3     1  UNL1        0.2383
      7 C          20.5225   73.7658   -7.4596 C.3     1  UNL1        0.1895
      8 O          21.0082   74.1672   -8.7411 O.3     1  UNL1       -0.3779
      9 C          21.6748   73.2187   -6.5776 C.3     1  UNL1        0.1713
     10 C          21.0559   71.9994   -5.8671 C.3     1  UNL1        0.1764
     11 O          19.6812   71.9138   -6.2796 O.3     1  UNL1       -0.3308
     12 O          22.7824   72.8234   -7.3899 O.3     1  UNL1       -0.3794
     13 H          21.5779   74.9353   -8.5967 H       1  UNL1        0.2106
     14 H          23.0862   73.6158   -7.8525 H       1  UNL1        0.2105
     15 N          18.2166   72.9462   -7.8621 N.ar    1  UNL1       -0.2551
     16 C          17.8359   73.1739   -9.1312 C.ar    1  UNL1        0.3323
     17 N          16.5763   73.5510   -9.4200 N.ar    1  UNL1       -0.2743
     18 C          15.6732   73.7162   -8.4325 C.ar    1  UNL1        0.2626
     19 C          16.0622   73.4857   -7.0915 C.ar    1  UNL1        0.0795
     20 C          17.3306   73.1030   -6.8305 C.ar    1  UNL1        0.0869
     21 O          18.6390   73.0290  -10.0327 O.2     1  UNL1       -0.2464
     22 O          14.5354   74.0618   -8.6920 O.2     1  UNL1       -0.2670
     23 H          16.3178   73.7063  -10.3415 H       1  UNL1        0.1734
     24 O          22.9610   71.1030   -1.3274 O.3     1  UNL1       -0.2703
     25 P          22.4758   70.5635    0.1088 P.3     1  UNL1        0.2208
     26 O          23.1380   69.2729    0.4002 O.2     1  UNL1       -0.5170
     27 O          20.8794   70.3552    0.0934 O.3     1  UNL1       -0.4371
     28 O          22.8649   71.6347    1.2453 O.3     1  UNL1       -0.2865
     29 C          21.7969   72.5818    1.3052 C.3     1  UNL1        0.2611
     30 C          22.3114   73.9520    0.8605 C.3     1  UNL1        0.1582
     31 C          23.4634   74.3768    1.7781 C.3     1  UNL1        0.1625
     32 C          22.9856   74.3001    3.2321 C.3     1  UNL1        0.1686
     33 C          22.4230   72.9024    3.4988 C.3     1  UNL1        0.1760
     34 O          23.8532   75.7161    1.4687 O.3     1  UNL1       -0.3801
     35 O          24.0849   74.5499    4.1101 O.3     1  UNL1       -0.3794
     36 O          21.3075   72.6603    2.6423 O.3     1  UNL1       -0.3263
     37 H          24.5783   75.9415    2.0676 H       1  UNL1        0.2105
     38 H          23.7408   74.4913    5.0127 H       1  UNL1        0.2105
     39 C          22.5366   74.8755   -1.3824 C.2     1  UNL1        0.2231
     40 C          23.0282   74.7914   -2.8049 C.3     1  UNL1        0.0946
     41 N          22.7892   73.8710   -0.5213 N.am    1  UNL1       -0.2994
     42 O          21.9128   75.8474   -1.0130 O.2     1  UNL1       -0.2751
     43 H          23.2882   73.0930   -0.8168 H       1  UNL1        0.1496
     44 C          21.9727   72.8051    4.9578 C.3     1  UNL1        0.1693
     45 O          21.5926   74.1003    5.4269 O.3     1  UNL1       -0.3794
     46 H          21.3167   73.9947    6.3474 H       1  UNL1        0.2105
@<TRIPOS>BOND
     1    29    30    1
     2    29    28    1
     3    29    36    1
     4    30    31    1
     5    30    41    1
     6    31    32    1
     7    31    34    1
     8    32    33    1
     9    32    35    1
    10    33    44    1
    11    33    36    1
    12    44    45    1
    13    39    40    1
    14    39    41   am
    15    39    42    2
    16    41    43    1
    17    28    25    1
    18    34    37    1
    19    35    38    1
    20    45    46    1
    21    15    16   ar
    22    15    20   ar
    23    15     6    1
    24    16    17   ar
    25    16    21    2
    26    17    18   ar
    27    17    23    1
    28    18    19   ar
    29    18    22    2
    30    19    20   ar
    31     6     7    1
    32     6    11    1
    33     7     8    1
    34     7     9    1
    35     8    13    1
    36     9    10    1
    37     9    12    1
    38    10    11    1
    39    10     5    1
    40    12    14    1
    41     5     4    1
    42     4     1    1
    43     1     2    2
    44     1     3    1
    45     1    24    1
    46    24    25    1
    47    25    26    2
    48    25    27    1
@<TRIPOS>MOLECULE
UD1
 46 48 0 0 0
SMALL
GASTEIGER

@<TRIPOS>ATOM
      1 P          22.0182   70.6491   -0.0124 P.3     1  UNL1        0.2189
      2 O          23.0421   71.5612   -0.5680 O.2     1  UNL1       -0.5170
      3 O          22.7317   69.5414    0.9131 O.3     1  UNL1       -0.4371
      4 O          21.2397   69.9190   -1.2181 O.3     1  UNL1       -0.3112
      5 C          21.0406   70.9005   -2.2366 C.3     1  UNL1        0.1811
      6 C          18.4731   70.7540   -4.7493 C.3     1  UNL1        0.2383
      7 C          18.7398   69.2732   -4.3801 C.3     1  UNL1        0.1895
      8 O          17.5565   68.4879   -4.5300 O.3     1  UNL1       -0.3779
      9 C          19.1488   69.3783   -2.8878 C.3     1  UNL1        0.1713
     10 C          19.5918   70.8450   -2.7234 C.3     1  UNL1        0.1764
     11 O          19.4846   71.4732   -4.0123 O.3     1  UNL1       -0.3308
     12 O          18.0341   69.0877   -2.0418 O.3     1  UNL1       -0.3794
     13 H          17.7892   67.5813   -4.2863 H       1  UNL1        0.2106
     14 H          17.7671   68.1789   -2.2339 H       1  UNL1        0.2105
     15 N          18.6331   70.9675   -6.1881 N.ar    1  UNL1       -0.2551
     16 C          17.5719   70.8368   -7.0031 C.ar    1  UNL1        0.3323
     17 N          17.6890   71.0311   -8.3301 N.ar    1  UNL1       -0.2743
     18 C          18.8832   71.3531   -8.8669 C.ar    1  UNL1        0.2626
     19 C          20.0098   71.4881   -8.0211 C.ar    1  UNL1        0.0795
     20 C          19.8631   71.2928   -6.6931 C.ar    1  UNL1        0.0869
     21 O          16.4882   70.5468   -6.5340 O.2     1  UNL1       -0.2464
     22 O          18.9912   71.5243  -10.0671 O.2     1  UNL1       -0.2670
     23 H          16.9120   70.9373   -8.9025 H       1  UNL1        0.1734
     24 O          20.9701   71.4927    0.8700 O.3     1  UNL1       -0.2703
     25 P          21.8250   72.2710    1.9892 P.3     1  UNL1        0.2208
     26 O          22.4166   73.4912    1.3977 O.2     1  UNL1       -0.5170
     27 O          23.0008   71.3132    2.5297 O.3     1  UNL1       -0.4371
     28 O          20.8629   72.6802    3.2129 O.3     1  UNL1       -0.2865
     29 C          20.9782   74.0948    3.3758 C.3     1  UNL1        0.2611
     30 C          21.7248   74.3943    4.6769 C.3     1  UNL1        0.1582
     31 C          20.9558   73.7755    5.8497 C.3     1  UNL1        0.1625
     32 C          19.5063   74.2702    5.8010 C.3     1  UNL1        0.1686
     33 C          18.9261   73.9772    4.4157 C.3     1  UNL1        0.1760
     34 O          21.5600   74.1737    7.0818 O.3     1  UNL1       -0.3801
     35 O          18.7365   73.5929    6.7961 O.3     1  UNL1       -0.3794
     36 O          19.6761   74.6743    3.4217 O.3     1  UNL1       -0.3263
     37 H          21.0461   73.7629    7.7906 H       1  UNL1        0.2105
     38 H          17.8328   73.9329    6.7301 H       1  UNL1        0.2105
     39 C          24.1494   74.6070    4.7775 C.2     1  UNL1        0.2231
     40 C          25.5337   74.0139    4.7119 C.3     1  UNL1        0.0946
     41 N          23.0697   73.8185    4.6138 N.am    1  UNL1       -0.2994
     42 O          24.0074   75.7945    4.9771 O.2     1  UNL1       -0.2751
     43 H          23.1830   72.8682    4.4538 H       1  UNL1        0.1496
     44 C          17.4680   74.4382    4.3670 C.3     1  UNL1        0.1693
     45 O          17.3028   75.5865    5.2014 O.3     1  UNL1       -0.3794
     46 H          16.3728   75.8438    5.1426 H       1  UNL1        0.2105
@<TRIPOS>BOND
     1    29    30    1
     2    29    28    1
     3    29    36    1
     4    30    31    1
     5    30    41    1
     6    31    32    1
     7    31    34    1
     8    32    33    1
     9    32    35    1
    10    33    44    1
    11    33    36    1
    12    44    45    1
    13    39    40    1
    14    39    41   am
    15    39    42    2
    16    41    43    1
    17    28    25    1
    18    34    37    1
    19    35    38    1
    20    45    46    1
    21    15    16   ar
    22    15    20   ar
    23    15     6    1
    24    16    17   ar
    25    16    21    2
    26    17    18   ar
    27    17    23    1
    28    18    19   ar
    29    18    22    2
    30    19    20   ar
    31     6     7    1
    32     6    11    1
    33     7     8    1
    34     7     9    1
    35     8    13    1
    36     9    10    1
    37     9    12    1
    38    10    11    1
    39    10     5    1
    40    12    14    1
    41     5     4    1
    42     4     1    1
    43     1     2    2
    44     1     3    1
    45     1    24    1
    46    24    25    1
    47    25    26    2
    48    25    27    1
@<TRIPOS>MOLECULE
UD1
 46 48 0 0 0
SMALL
GASTEIGER

@<TRIPOS>ATOM
      1 P          18.3185   70.6547   -2.8497 P.3     1  UNL1        0.2189
      2 O          16.9518   71.1671   -2.6085 O.2     1  UNL1       -0.5170
      3 O          18.4110   69.1227   -2.3627 O.3     1  UNL1       -0.4371
      4 O          19.3777   71.5438   -2.0248 O.3     1  UNL1       -0.3112
      5 C          20.1661   72.2465   -2.9867 C.3     1  UNL1        0.1811
      6 C          22.7078   72.4560   -0.4523 C.3     1  UNL1        0.2383
      7 C          22.5856   70.9416   -0.7552 C.3     1  UNL1        0.1895
      8 O          23.8357   70.2791   -0.5614 O.3     1  UNL1       -0.3779
      9 C          22.1852   70.9405   -2.2535 C.3     1  UNL1        0.1713
     10 C          21.6082   72.3500   -2.4878 C.3     1  UNL1        0.1764
     11 O          21.6414   73.0426   -1.2283 O.3     1  UNL1       -0.3308
     12 O          23.3317   70.7188   -3.0776 O.3     1  UNL1       -0.3794
     13 H          23.6920   69.3445   -0.7649 H       1  UNL1        0.2106
     14 H          23.6808   69.8489   -2.8423 H       1  UNL1        0.2105
     15 N          22.5123   72.7178    0.9742 N.ar    1  UNL1       -0.2551
     16 C          21.8387   71.8316    1.7280 C.ar    1  UNL1        0.3323
     17 N          21.6473   72.0445    3.0434 N.ar    1  UNL1       -0.2743
     18 C          22.1239   73.1626    3.6272 C.ar    1  UNL1        0.2626
     19 C          22.8297   74.1068    2.8441 C.ar    1  UNL1        0.0795
     20 C          23.0119   73.8656    1.5280 C.ar    1  UNL1        0.0869
     21 O          21.4029   70.8184    1.2160 O.2     1  UNL1       -0.2464
     22 O          21.9473   73.3584    4.8154 O.2     1  UNL1       -0.2670
     23 H          21.1632   71.3923    3.5730 H       1  UNL1        0.1734
     24 O          18.6545   70.7406   -4.4209 O.3     1  UNL1       -0.2703
     25 P          17.2452   70.8112   -5.1944 P.3     1  UNL1        0.2208
     26 O          16.2132   71.3637   -4.2896 O.2     1  UNL1       -0.5170
     27 O          16.8131   69.3318   -5.6601 O.3     1  UNL1       -0.4371
     28 O          17.3882   71.7589   -6.4874 O.3     1  UNL1       -0.2865
     29 C          18.7158   72.2864   -6.4698 C.3     1  UNL1        0.2611
     30 C          18.6797   73.7589   -6.8829 C.3     1  UNL1        0.1582
     31 C          18.0713   73.8712   -8.2853 C.3     1  UNL1        0.1625
     32 C          18.8460   72.9475   -9.2312 C.3     1  UNL1        0.1686
     33 C          18.8670   71.5354   -8.6423 C.3     1  UNL1        0.1760
     34 O          18.1687   75.2213   -8.7428 O.3     1  UNL1       -0.3801
     35 O          18.2054   72.9249  -10.5081 O.3     1  UNL1       -0.3794
     36 O          19.5306   71.5496   -7.3790 O.3     1  UNL1       -0.3263
     37 H          17.7750   75.2462   -9.6258 H       1  UNL1        0.2105
     38 H          18.7239   72.3324  -11.0708 H       1  UNL1        0.2105
     39 C          16.5526   74.7128   -6.1759 C.2     1  UNL1        0.2231
     40 C          15.7118   75.4913   -5.1965 C.3     1  UNL1        0.0946
     41 N          17.8623   74.5147   -5.9316 N.am    1  UNL1       -0.2994
     42 O          16.0502   74.2651   -7.1845 O.2     1  UNL1       -0.2751
     43 H          18.2647   74.8730   -5.1246 H       1  UNL1        0.1496
     44 C          19.6108   70.5976   -9.5955 C.3     1  UNL1        0.1693
     45 O          18.7183   70.1518  -10.6186 O.3     1  UNL1       -0.3794
     46 H          19.2251   69.5648  -11.1958 H       1  UNL1        0.2105
@<TRIPOS>BOND
     1    29    30    1
     2    29    28    1
     3    29    36    1
     4    30    31    1
     5    30    41    1
     6    31    32    1
     7    31    34    1
     8    32    33    1
     9    32    35    1
    10    33    44    1
    11    33    36    1
    12    44    45    1
    13    39    40    1
    14    39    41   am
    15    39    42    2
    16    41    43    1
    17    28    25    1
    18    34    37    1
    19    35    38    1
    20    45    46    1
    21    15    16   ar
    22    15    20   ar
    23    15     6    1
    24    16    17   ar
    25    16    21    2
    26    17    18   ar
    27    17    23    1
    28    18    19   ar
    29    18    22    2
    30    19    20   ar
    31     6     7    1
    32     6    11    1
    33     7     8    1
    34     7     9    1
    35     8    13    1
    36     9    10    1
    37     9    12    1
    38    10    11    1
    39    10     5    1
    40    12    14    1
    41     5     4    1
    42     4     1    1
    43     1     2    2
    44     1     3    1
    45     1    24    1
    46    24    25    1
    47    25    26    2
    48    25    27    1
@<TRIPOS>MOLECULE
UD1
 46 48 0 0 0
SMALL
GASTEIGER

@<TRIPOS>ATOM
      1 P          22.9093   71.9600   -3.3020 P.3     1  UNL1        0.2189
      2 O          23.4845   70.6081   -3.1276 O.2     1  UNL1       -0.5170
      3 O          23.9887   72.9138   -4.0214 O.3     1  UNL1       -0.4371
      4 O          22.5304   72.5713   -1.8613 O.3     1  UNL1       -0.3112
      5 C          21.9552   71.5089   -1.0992 C.3     1  UNL1        0.1811
      6 C          21.1285   73.3406    1.8822 C.3     1  UNL1        0.2383
      7 C          21.0338   74.3878    0.7444 C.3     1  UNL1        0.1895
      8 O          20.0546   75.3827    1.0456 O.3     1  UNL1       -0.3779
      9 C          20.5880   73.5197   -0.4609 C.3     1  UNL1        0.1713
     10 C          20.9928   72.0877   -0.0609 C.3     1  UNL1        0.1764
     11 O          21.6437   72.1668    1.2186 O.3     1  UNL1       -0.3308
     12 O          19.1743   73.6129   -0.6490 O.3     1  UNL1       -0.3794
     13 H          20.0456   76.0011    0.3019 H       1  UNL1        0.2106
     14 H          18.9780   74.5404   -0.8367 H       1  UNL1        0.2105
     15 N          22.0503   73.7898    2.9262 N.ar    1  UNL1       -0.2551
     16 C          23.2742   74.2322    2.5891 C.ar    1  UNL1        0.3323
     17 N          24.1412   74.6552    3.5280 N.ar    1  UNL1       -0.2743
     18 C          23.7961   74.6326    4.8312 C.ar    1  UNL1        0.2626
     19 C          22.5129   74.1637    5.2005 C.ar    1  UNL1        0.0795
     20 C          21.6609   73.7503    4.2379 C.ar    1  UNL1        0.0869
     21 O          23.6002   74.2587    1.4179 O.2     1  UNL1       -0.2464
     22 O          24.5809   75.0103    5.6813 O.2     1  UNL1       -0.2670
     23 H          25.0182   74.9756    3.2665 H       1  UNL1        0.1734
     24 O          21.5845   71.8665   -4.2103 O.3     1  UNL1       -0.2703
     25 P          21.6937   73.0333   -5.3131 P.3     1  UNL1        0.2208
     26 O          22.9347   72.8550   -6.0985 O.2     1  UNL1       -0.5170
     27 O          21.7255   74.4656   -4.5785 O.3     1  UNL1       -0.4371
     28 O          20.4216   72.9644   -6.2968 O.3     1  UNL1       -0.2865
     29 C          20.8860   73.3200   -7.6003 C.3     1  UNL1        0.2611
     30 C          20.0685   74.5028   -8.1224 C.3     1  UNL1        0.1582
     31 C          18.5877   74.1091   -8.1642 C.3     1  UNL1        0.1625
     32 C          18.4476   72.8134   -8.9701 C.3     1  UNL1        0.1686
     33 C          19.3853   71.7569   -8.3820 C.3     1  UNL1        0.1760
     34 O          17.8331   75.1493   -8.7887 O.3     1  UNL1       -0.3801
     35 O          17.0980   72.3496   -8.8985 O.3     1  UNL1       -0.3794
     36 O          20.7367   72.2053   -8.4769 O.3     1  UNL1       -0.3263
     37 H          16.9101   74.8607   -8.7934 H       1  UNL1        0.2105
     38 H          17.0547   71.5338   -9.4173 H       1  UNL1        0.2105
     39 C          20.3726   76.8903   -7.7461 C.2     1  UNL1        0.2231
     40 C          20.5555   78.0727   -6.8292 C.3     1  UNL1        0.0946
     41 N          20.2457   75.6518   -7.2320 N.am    1  UNL1       -0.2994
     42 O          20.3404   77.0537   -8.9471 O.2     1  UNL1       -0.2751
     43 H          20.2717   75.5208   -6.2709 H       1  UNL1        0.1496
     44 C          19.2291   70.4485   -9.1597 C.3     1  UNL1        0.1693
     45 O          18.8146   70.7353  -10.4969 O.3     1  UNL1       -0.3794
     46 H          18.7280   69.8863  -10.9512 H       1  UNL1        0.2105
@<TRIPOS>BOND
     1    29    30    1
     2    29    28    1
     3    29    36    1
     4    30    31    1
     5    30    41    1
     6    31    32    1
     7    31    34    1
     8    32    33    1
     9    32    35    1
    10    33    44    1
    11    33    36    1
    12    44    45    1
    13    39    40    1
    14    39    41   am
    15    39    42    2
    16    41    43    1
    17    28    25    1
    18    34    37    1
    19    35    38    1
    20    45    46    1
    21    15    16   ar
    22    15    20   ar
    23    15     6    1
    24    16    17   ar
    25    16    21    2
    26    17    18   ar
    27    17    23    1
    28    18    19   ar
    29    18    22    2
    30    19    20   ar
    31     6     7    1
    32     6    11    1
    33     7     8    1
    34     7     9    1
    35     8    13    1
    36     9    10    1
    37     9    12    1
    38    10    11    1
    39    10     5    1
    40    12    14    1
    41     5     4    1
    42     4     1    1
    43     1     2    2
    44     1     3    1
    45     1    24    1
    46    24    25    1
    47    25    26    2
    48    25    27    1
@<TRIPOS>MOLECULE
UD1
 46 48 0 0 0
SMALL
GASTEIGER

@<TRIPOS>ATOM
      1 P          22.7988   73.1798   -3.7036 P.3     1  UNL1        0.2189
      2 O          24.2305   73.1163   -4.0711 O.2     1  UNL1       -0.5170
      3 O          22.3715   74.7150   -3.4729 O.3     1  UNL1       -0.4371
      4 O          22.5561   72.3467   -2.3472 O.3     1  UNL1       -0.3112
      5 C          22.3125   73.3014   -1.3130 C.3     1  UNL1        0.1811
      6 C          22.6441   73.3319    2.2670 C.3     1  UNL1        0.2383
      7 C          21.2169   72.7849    2.0140 C.3     1  UNL1        0.1895
      8 O          20.8282   71.8751    3.0437 O.3     1  UNL1       -0.3779
      9 C          21.3857   72.0485    0.6596 C.3     1  UNL1        0.1713
     10 C          22.6487   72.6815    0.0442 C.3     1  UNL1        0.1764
     11 O          23.1021   73.7026    0.9492 O.3     1  UNL1       -0.3308
     12 O          21.5731   70.6475    0.8718 O.3     1  UNL1       -0.3794
     13 H          19.9350   71.5730    2.8282 H       1  UNL1        0.2106
     14 H          20.7763   70.3227    1.3119 H       1  UNL1        0.2105
     15 N          22.6041   74.5004    3.1471 N.ar    1  UNL1       -0.2551
     16 C          22.6946   74.3353    4.4782 C.ar    1  UNL1        0.3323
     17 N          22.6645   75.3922    5.3114 N.ar    1  UNL1       -0.2743
     18 C          22.5329   76.6410    4.8203 C.ar    1  UNL1        0.2626
     19 C          22.4306   76.8287    3.4213 C.ar    1  UNL1        0.0795
     20 C          22.4689   75.7514    2.6081 C.ar    1  UNL1        0.0869
     21 O          22.8138   73.2152    4.9363 O.2     1  UNL1       -0.2464
     22 O          22.5008   77.5969    5.5730 O.2     1  UNL1       -0.2670
     23 H          22.7359   75.2550    6.2686 H       1  UNL1        0.1734
     24 O          21.9121   72.5470   -4.8877 O.3     1  UNL1       -0.2703
     25 P          20.4342   73.1670   -4.7440 P.3     1  UNL1        0.2208
     26 O          20.5182   74.6440   -4.7294 O.2     1  UNL1       -0.5170
     27 O          19.7678   72.6546   -3.3708 O.3     1  UNL1       -0.4371
     28 O          19.5289   72.6933   -5.9876 O.3     1  UNL1       -0.2865
     29 C          19.9986   71.4004   -6.3735 C.3     1  UNL1        0.2611
     30 C          20.1580   71.3542   -7.8942 C.3     1  UNL1        0.1582
     31 C          18.8056   71.6563   -8.5494 C.3     1  UNL1        0.1625
     32 C          17.7574   70.6979   -7.9742 C.3     1  UNL1        0.1686
     33 C          17.7770   70.7960   -6.4473 C.3     1  UNL1        0.1760
     34 O          18.9057   71.4698   -9.9624 O.3     1  UNL1       -0.3801
     35 O          16.4630   71.0574   -8.4610 O.3     1  UNL1       -0.3794
     36 O          19.0604   70.4112   -5.9560 O.3     1  UNL1       -0.3263
     37 H          18.0352   71.6703  -10.3330 H       1  UNL1        0.2105
     38 H          15.8349   70.4307   -8.0746 H       1  UNL1        0.2105
     39 C          20.7354   73.5835   -8.6887 C.2     1  UNL1        0.2231
     40 C          21.7478   74.6131   -9.1216 C.3     1  UNL1        0.0946
     41 N          21.1411   72.3549   -8.3144 N.am    1  UNL1       -0.2994
     42 O          19.5551   73.8610   -8.6778 O.2     1  UNL1       -0.2751
     43 H          22.0856   72.1325   -8.3232 H       1  UNL1        0.1496
     44 C          16.7109   69.8663   -5.8641 C.3     1  UNL1        0.1693
     45 O          16.7674   69.9121   -4.4369 O.3     1  UNL1       -0.3794
     46 H          16.0818   69.3139   -4.1103 H       1  UNL1        0.2105
@<TRIPOS>BOND
     1    29    30    1
     2    29    28    1
     3    29    36    1
     4    30    31    1
     5    30    41    1
     6    31    32    1
     7    31    34    1
     8    32    33    1
     9    32    35    1
    10    33    44    1
    11    33    36    1
    12    44    45    1
    13    39    40    1
    14    39    41   am
    15    39    42    2
    16    41    43    1
    17    28    25    1
    18    34    37    1
    19    35    38    1
    20    45    46    1
    21    15    16   ar
    22    15    20   ar
    23    15     6    1
    24    16    17   ar
    25    16    21    2
    26    17    18   ar
    27    17    23    1
    28    18    19   ar
    29    18    22    2
    30    19    20   ar
    31     6     7    1
    32     6    11    1
    33     7     8    1
    34     7     9    1
    35     8    13    1
    36     9    10    1
    37     9    12    1
    38    10    11    1
    39    10     5    1
    40    12    14    1
    41     5     4    1
    42     4     1    1
    43     1     2    2
    44     1     3    1
    45     1    24    1
    46    24    25    1
    47    25    26    2
    48    25    27    1
@<TRIPOS>MOLECULE
UD1
 46 48 0 0 0
SMALL
GASTEIGER

@<TRIPOS>ATOM
      1 P          23.2200   74.7629   -4.1696 P.3     1  UNL1        0.2189
      2 O          23.1689   76.0860   -3.5097 O.2     1  UNL1       -0.5170
      3 O          24.6902   74.1309   -3.9919 O.3     1  UNL1       -0.4371
      4 O          22.8960   74.9332   -5.7377 O.3     1  UNL1       -0.3112
      5 C          22.0791   76.0977   -5.8675 C.3     1  UNL1        0.1811
      6 C          20.0523   74.6115   -8.4387 C.3     1  UNL1        0.2383
      7 C          19.0513   75.4153   -7.5715 C.3     1  UNL1        0.1895
      8 O          17.9601   75.8920   -8.3596 O.3     1  UNL1       -0.3779
      9 C          19.9274   76.5926   -7.0697 C.3     1  UNL1        0.1713
     10 C          21.3713   76.0767   -7.2232 C.3     1  UNL1        0.1764
     11 O          21.2955   74.7276   -7.7144 O.3     1  UNL1       -0.3308
     12 O          19.7155   77.7532   -7.8765 O.3     1  UNL1       -0.3794
     13 H          17.3764   76.3810   -7.7633 H       1  UNL1        0.2106
     14 H          18.7831   77.9905   -7.7849 H       1  UNL1        0.2105
     15 N          19.6430   73.2102   -8.5403 N.ar    1  UNL1       -0.2551
     16 C          18.6872   72.8572   -9.4173 C.ar    1  UNL1        0.3323
     17 N          18.2937   71.5752   -9.5349 N.ar    1  UNL1       -0.2743
     18 C          18.8499   70.6201   -8.7626 C.ar    1  UNL1        0.2626
     19 C          19.8530   70.9788   -7.8310 C.ar    1  UNL1        0.0795
     20 C          20.2326   72.2713   -7.7374 C.ar    1  UNL1        0.0869
     21 O          18.1762   73.7071  -10.1209 O.2     1  UNL1       -0.2464
     22 O          18.4916   69.4614   -8.8647 O.2     1  UNL1       -0.2670
     23 H          17.6063   71.3377  -10.1762 H       1  UNL1        0.1734
     24 O          22.1305   73.7867   -3.4997 O.3     1  UNL1       -0.2703
     25 P          22.2760   72.3588   -4.2274 P.3     1  UNL1        0.2208
     26 O          23.2282   71.5152   -3.4721 O.2     1  UNL1       -0.5170
     27 O          22.8223   72.5730   -5.7266 O.3     1  UNL1       -0.4371
     28 O          20.8404   71.6329   -4.2795 O.3     1  UNL1       -0.2865
     29 C          20.0776   72.1440   -3.1850 C.3     1  UNL1        0.2611
     30 C          19.6520   70.9854   -2.2814 C.3     1  UNL1        0.1582
     31 C          18.8232   69.9893   -3.1003 C.3     1  UNL1        0.1625
     32 C          17.6742   70.7460   -3.7751 C.3     1  UNL1        0.1686
     33 C          18.2494   71.9210   -4.5686 C.3     1  UNL1        0.1760
     34 O          18.2950   68.9815   -2.2362 O.3     1  UNL1       -0.3801
     35 O          16.9767   69.8663   -4.6590 O.3     1  UNL1       -0.3794
     36 O          18.9233   72.8159   -3.6846 O.3     1  UNL1       -0.3263
     37 H          17.7824   68.3780   -2.7915 H       1  UNL1        0.2105
     38 H          16.2640   70.3821   -5.0622 H       1  UNL1        0.2105
     39 C          21.3649   70.7026   -0.5725 C.2     1  UNL1        0.2231
     40 C          22.5893   70.0126   -0.0276 C.3     1  UNL1        0.0946
     41 N          20.8412   70.3151   -1.7514 N.am    1  UNL1       -0.2994
     42 O          20.8513   71.6073    0.0502 O.2     1  UNL1       -0.2751
     43 H          21.2522   69.5912   -2.2500 H       1  UNL1        0.1496
     44 C          17.1125   72.6643   -5.2731 C.3     1  UNL1        0.1693
     45 O          17.2537   74.0693   -5.0540 O.3     1  UNL1       -0.3794
     46 H          16.5194   74.4992   -5.5130 H       1  UNL1        0.2105
@<TRIPOS>BOND
     1    29    30    1
     2    29    28    1
     3    29    36    1
     4    30    31    1
     5    30    41    1
     6    31    32    1
     7    31    34    1
     8    32    33    1
     9    32    35    1
    10    33    44    1
    11    33    36    1
    12    44    45    1
    13    39    40    1
    14    39    41   am
    15    39    42    2
    16    41    43    1
    17    28    25    1
    18    34    37    1
    19    35    38    1
    20    45    46    1
    21    15    16   ar
    22    15    20   ar
    23    15     6    1
    24    16    17   ar
    25    16    21    2
    26    17    18   ar
    27    17    23    1
    28    18    19   ar
    29    18    22    2
    30    19    20   ar
    31     6     7    1
    32     6    11    1
    33     7     8    1
    34     7     9    1
    35     8    13    1
    36     9    10    1
    37     9    12    1
    38    10    11    1
    39    10     5    1
    40    12    14    1
    41     5     4    1
    42     4     1    1
    43     1     2    2
    44     1     3    1
    45     1    24    1
    46    24    25    1
    47    25    26    2
    48    25    27    1
@<TRIPOS>MOLECULE
UD1
 46 48 0 0 0
SMALL
GASTEIGER

@<TRIPOS>ATOM
      1 P          21.6822   70.8549   -2.9955 P.3     1  UNL1        0.2189
      2 O          21.2717   69.5808   -2.3657 O.2     1  UNL1       -0.5170
      3 O          23.2724   70.8411   -3.2478 O.3     1  UNL1       -0.4371
      4 O          21.3050   72.0804   -2.0215 O.3     1  UNL1       -0.3112
      5 C          22.4939   72.4226   -1.3074 C.3     1  UNL1        0.1811
      6 C          22.4120   74.8185    1.3722 C.3     1  UNL1        0.2383
      7 C          23.8843   74.8256    0.8900 C.3     1  UNL1        0.1895
      8 O          24.4767   76.1116    1.0755 O.3     1  UNL1       -0.3779
      9 C          23.7345   74.4977   -0.6184 C.3     1  UNL1        0.1713
     10 C          22.3507   73.8276   -0.7202 C.3     1  UNL1        0.1764
     11 O          21.8125   73.7487    0.6107 O.3     1  UNL1       -0.3308
     12 O          23.7761   75.6954   -1.3973 O.3     1  UNL1       -0.3794
     13 H          25.3881   76.0487    0.7577 H       1  UNL1        0.2106
     14 H          24.6416   76.0977   -1.2449 H       1  UNL1        0.2105
     15 N          22.3365   74.5366    2.8062 N.ar    1  UNL1       -0.2551
     16 C          22.5366   73.2836    3.2503 C.ar    1  UNL1        0.3323
     17 N          22.4770   72.9961    4.5641 N.ar    1  UNL1       -0.2743
     18 C          22.2046   73.9660    5.4602 C.ar    1  UNL1        0.2626
     19 C          21.9859   75.2883    5.0058 C.ar    1  UNL1        0.0795
     20 C          22.0569   75.5499    3.6830 C.ar    1  UNL1        0.0869
     21 O          22.7833   72.3980    2.4544 O.2     1  UNL1       -0.2464
     22 O          22.1458   73.7063    6.6479 O.2     1  UNL1       -0.2670
     23 H          22.6287   72.0877    4.8672 H       1  UNL1        0.1734
     24 O          20.9167   71.0306   -4.3998 O.3     1  UNL1       -0.2703
     25 P          19.3587   70.7418   -4.1192 P.3     1  UNL1        0.2208
     26 O          18.9991   71.2413   -2.7739 O.2     1  UNL1       -0.5170
     27 O          19.0841   69.1571   -4.1936 O.3     1  UNL1       -0.4371
     28 O          18.4645   71.4925   -5.2270 O.3     1  UNL1       -0.2865
     29 C          17.2521   70.7476   -5.3553 C.3     1  UNL1        0.2611
     30 C          16.7673   70.8175   -6.8045 C.3     1  UNL1        0.1582
     31 C          16.5441   72.2846   -7.1881 C.3     1  UNL1        0.1625
     32 C          15.6092   72.9243   -6.1563 C.3     1  UNL1        0.1686
     33 C          16.1831   72.6981   -4.7560 C.3     1  UNL1        0.1760
     34 O          15.9505   72.3552   -8.4858 O.3     1  UNL1       -0.3801
     35 O          15.5045   74.3264   -6.4106 O.3     1  UNL1       -0.3794
     36 O          16.2633   71.2987   -4.4881 O.3     1  UNL1       -0.3263
     37 H          15.8284   73.2934   -8.6866 H       1  UNL1        0.2105
     38 H          14.9090   74.6888   -5.7394 H       1  UNL1        0.2105
     39 C          18.7047   71.0106   -8.2686 C.2     1  UNL1        0.2231
     40 C          19.7421   70.4028   -9.1777 C.3     1  UNL1        0.0946
     41 N          17.7756   70.2274   -7.6874 N.am    1  UNL1       -0.2994
     42 O          18.7058   72.2051   -8.0607 O.2     1  UNL1       -0.2751
     43 H          17.7744   69.2715   -7.8538 H       1  UNL1        0.1496
     44 C          15.2732   73.3615   -3.7200 C.3     1  UNL1        0.1693
     45 O          14.2325   72.4550   -3.3495 O.3     1  UNL1       -0.3794
     46 H          13.6833   72.9110   -2.6974 H       1  UNL1        0.2105
@<TRIPOS>BOND
     1    29    30    1
     2    29    28    1
     3    29    36    1
     4    30    31    1
     5    30    41    1
     6    31    32    1
     7    31    34    1
     8    32    33    1
     9    32    35    1
    10    33    44    1
    11    33    36    1
    12    44    45    1
    13    39    40    1
    14    39    41   am
    15    39    42    2
    16    41    43    1
    17    28    25    1
    18    34    37    1
    19    35    38    1
    20    45    46    1
    21    15    16   ar
    22    15    20   ar
    23    15     6    1
    24    16    17   ar
    25    16    21    2
    26    17    18   ar
    27    17    23    1
    28    18    19   ar
    29    18    22    2
    30    19    20   ar
    31     6     7    1
    32     6    11    1
    33     7     8    1
    34     7     9    1
    35     8    13    1
    36     9    10    1
    37     9    12    1
    38    10    11    1
    39    10     5    1
    40    12    14    1
    41     5     4    1
    42     4     1    1
    43     1     2    2
    44     1     3    1
    45     1    24    1
    46    24    25    1
    47    25    26    2
    48    25    27    1
@<TRIPOS>MOLECULE
UD1
 46 48 0 0 0
SMALL
GASTEIGER

@<TRIPOS>ATOM
      1 P          18.8141   74.7293   -2.8990 P.3     1  UNL1        0.2189
      2 O          17.8235   75.4791   -2.0956 O.2     1  UNL1       -0.5170
      3 O          18.4256   74.8279   -4.4585 O.3     1  UNL1       -0.4371
      4 O          18.8148   73.1847   -2.4439 O.3     1  UNL1       -0.3112
      5 C          17.4534   72.7522   -2.4454 C.3     1  UNL1        0.1811
      6 C          17.9109   70.3634   -5.0933 C.3     1  UNL1        0.2383
      7 C          19.1873   70.2300   -4.2255 C.3     1  UNL1        0.1895
      8 O          19.6971   68.8968   -4.2677 O.3     1  UNL1       -0.3779
      9 C          18.6560   70.5748   -2.8098 C.3     1  UNL1        0.1713
     10 C          17.3594   71.3630   -3.0783 C.3     1  UNL1        0.1764
     11 O          17.2174   71.4838   -4.5039 O.3     1  UNL1       -0.3308
     12 O          18.3801   69.3807   -2.0744 O.3     1  UNL1       -0.3794
     13 H          20.4875   68.8813   -3.7105 H       1  UNL1        0.2106
     14 H          19.2169   68.9042   -1.9915 H       1  UNL1        0.2105
     15 N          18.2573   70.6459   -6.4867 N.ar    1  UNL1       -0.2551
     16 C          17.3362   70.4730   -7.4506 C.ar    1  UNL1        0.3323
     17 N          17.6259   70.7288   -8.7401 N.ar    1  UNL1       -0.2743
     18 C          18.8562   71.1567   -9.0882 C.ar    1  UNL1        0.2626
     19 C          19.8373   71.3373   -8.0843 C.ar    1  UNL1        0.0795
     20 C          19.5182   71.0784   -6.7980 C.ar    1  UNL1        0.0869
     21 O          16.2221   70.0877   -7.1524 O.2     1  UNL1       -0.2464
     22 O          19.1206   71.3838  -10.2544 O.2     1  UNL1       -0.2670
     23 H          16.9478   70.6031   -9.4217 H       1  UNL1        0.1734
     24 O          20.2775   75.3570   -2.6688 O.3     1  UNL1       -0.2703
     25 P          20.6146   75.1890   -1.1044 P.3     1  UNL1        0.2208
     26 O          19.4809   75.6936   -0.2987 O.2     1  UNL1       -0.5170
     27 O          21.9413   76.0285   -0.7473 O.3     1  UNL1       -0.4371
     28 O          20.8595   73.6336   -0.7709 O.3     1  UNL1       -0.2865
     29 C          22.2584   73.3908   -0.9302 C.3     1  UNL1        0.2611
     30 C          22.4630   72.2615   -1.9416 C.3     1  UNL1        0.1582
     31 C          21.7492   71.0021   -1.4378 C.3     1  UNL1        0.1625
     32 C          22.2337   70.6997   -0.0159 C.3     1  UNL1        0.1686
     33 C          22.0435   71.9461    0.8511 C.3     1  UNL1        0.1760
     34 O          22.0564   69.9019   -2.2960 O.3     1  UNL1       -0.3801
     35 O          21.4752   69.6176    0.5275 O.3     1  UNL1       -0.3794
     36 O          22.8215   73.0214    0.3267 O.3     1  UNL1       -0.3263
     37 H          21.5877   69.1330   -1.9432 H       1  UNL1        0.2105
     38 H          21.8116   69.4613    1.4213 H       1  UNL1        0.2105
     39 C          22.7246   72.9034   -4.2769 C.2     1  UNL1        0.2231
     40 C          22.1500   73.3107   -5.6097 C.3     1  UNL1        0.0946
     41 N          21.9053   72.6567   -3.2366 N.am    1  UNL1       -0.2994
     42 O          23.9248   72.7985   -4.1407 O.2     1  UNL1       -0.2751
     43 H          20.9447   72.7408   -3.3453 H       1  UNL1        0.1496
     44 C          22.4944   71.6444    2.2817 C.3     1  UNL1        0.1693
     45 O          21.3585   71.6398    3.1487 O.3     1  UNL1       -0.3794
     46 H          21.6857   71.4467    4.0377 H       1  UNL1        0.2105
@<TRIPOS>BOND
     1    29    30    1
     2    29    28    1
     3    29    36    1
     4    30    31    1
     5    30    41    1
     6    31    32    1
     7    31    34    1
     8    32    33    1
     9    32    35    1
    10    33    44    1
    11    33    36    1
    12    44    45    1
    13    39    40    1
    14    39    41   am
    15    39    42    2
    16    41    43    1
    17    28    25    1
    18    34    37    1
    19    35    38    1
    20    45    46    1
    21    15    16   ar
    22    15    20   ar
    23    15     6    1
    24    16    17   ar
    25    16    21    2
    26    17    18   ar
    27    17    23    1
    28    18    19   ar
    29    18    22    2
    30    19    20   ar
    31     6     7    1
    32     6    11    1
    33     7     8    1
    34     7     9    1
    35     8    13    1
    36     9    10    1
    37     9    12    1
    38    10    11    1
    39    10     5    1
    40    12    14    1
    41     5     4    1
    42     4     1    1
    43     1     2    2
    44     1     3    1
    45     1    24    1
    46    24    25    1
    47    25    26    2
    48    25    27    1
