@<TRIPOS>MOLECULE
GDU
 43 45 0 0 0
SMALL
GASTEIGER

@<TRIPOS>ATOM
      1 P          22.1456   70.8154   -2.5439 P.3     1  UNL1        0.2189
      2 O          21.5479   69.5884   -1.9723 O.2     1  UNL1       -0.5170
      3 O          23.5455   70.4509   -3.2515 O.3     1  UNL1       -0.4371
      4 O          21.1423   71.4449   -3.6320 O.3     1  UNL1       -0.3112
      5 C          20.1433   72.1635   -2.9066 C.3     1  UNL1        0.1811
      6 C          18.0062   71.2738   -5.6577 C.3     1  UNL1        0.2383
      7 C          18.0484   70.0030   -4.7711 C.3     1  UNL1        0.1895
      8 O          16.8235   69.2727   -4.8680 O.3     1  UNL1       -0.3779
      9 C          18.2239   70.6029   -3.3517 C.3     1  UNL1        0.1713
     10 C          18.7924   72.0109   -3.6081 C.3     1  UNL1        0.1764
     11 O          18.9609   72.1552   -5.0290 O.3     1  UNL1       -0.3308
     12 O          16.9637   70.6791   -2.6823 O.3     1  UNL1       -0.3794
     13 H          16.9148   68.4979   -4.2960 H       1  UNL1        0.2106
     14 H          16.6327   69.7741   -2.6045 H       1  UNL1        0.2105
     15 N          18.4158   70.9630   -7.0283 N.ar    1  UNL1       -0.2551
     16 C          17.4847   70.6623   -7.9507 C.ar    1  UNL1        0.3323
     17 N          17.8344   70.3762   -9.2186 N.ar    1  UNL1       -0.2743
     18 C          19.1311   70.3771   -9.5830 C.ar    1  UNL1        0.2626
     19 C          20.1233   70.6864   -8.6206 C.ar    1  UNL1        0.0795
     20 C          19.7447   70.9737   -7.3571 C.ar    1  UNL1        0.0869
     21 O          16.3109   70.6580   -7.6370 O.2     1  UNL1       -0.2464
     22 O          19.4490   70.1136  -10.7293 O.2     1  UNL1       -0.2670
     23 H          17.1488   70.1656   -9.8723 H       1  UNL1        0.1734
     24 O          22.4028   71.8842   -1.3675 O.3     1  UNL1       -0.2703
     25 P          22.3702   71.0684    0.0194 P.3     1  UNL1        0.2208
     26 O          21.0539   70.4107    0.1737 O.2     1  UNL1       -0.5170
     27 O          23.5302   69.9511    0.0119 O.3     1  UNL1       -0.4371
     28 O          22.6116   72.0825    1.2455 O.3     1  UNL1       -0.2858
     29 C          21.3295   72.5796    1.6314 C.3     1  UNL1        0.2704
     30 C          21.1913   74.0350    1.1818 C.3     1  UNL1        0.1967
     31 C          22.3083   74.8634    1.8240 C.3     1  UNL1        0.1715
     32 C          22.2720   74.6430    3.3405 C.3     1  UNL1        0.1694
     33 C          22.3303   73.1404    3.6265 C.3     1  UNL1        0.1761
     34 O          21.2965   74.1084   -0.2411 O.3     1  UNL1       -0.3775
     35 O          22.1072   76.2481    1.5328 O.3     1  UNL1       -0.3794
     36 O          21.0651   75.1893    3.8740 O.3     1  UNL1       -0.3794
     37 O          21.1961   72.4959    3.0484 O.3     1  UNL1       -0.3258
     38 H          20.5803   73.5683   -0.6020 H       1  UNL1        0.2106
     39 H          22.1257   76.3374    0.5715 H       1  UNL1        0.2105
     40 H          21.0689   76.1327    3.6658 H       1  UNL1        0.2105
     41 C          22.3293   72.9105    5.1395 C.3     1  UNL1        0.1693
     42 O          20.9934   73.0144    5.6353 O.3     1  UNL1       -0.3794
     43 H          21.0364   72.8628    6.5895 H       1  UNL1        0.2105
@<TRIPOS>BOND
     1    15    16   ar
     2    15    20   ar
     3    15     6    1
     4    16    17   ar
     5    16    21    2
     6    17    18   ar
     7    17    23    1
     8    18    19   ar
     9    18    22    2
    10    19    20   ar
    11     6     7    1
    12     6    11    1
    13     7     8    1
    14     7     9    1
    15     8    13    1
    16     9    10    1
    17     9    12    1
    18    10    11    1
    19    10     5    1
    20    12    14    1
    21     5     4    1
    22     4     1    1
    23     1     2    2
    24     1     3    1
    25     1    24    1
    26    24    25    1
    27    25    26    2
    28    25    27    1
    29    25    28    1
    30    28    29    1
    31    29    30    1
    32    29    37    1
    33    30    31    1
    34    30    34    1
    35    31    32    1
    36    31    35    1
    37    32    33    1
    38    32    36    1
    39    33    41    1
    40    33    37    1
    41    41    42    1
    42    34    38    1
    43    35    39    1
    44    36    40    1
    45    42    43    1
@<TRIPOS>MOLECULE
GDU
 43 45 0 0 0
SMALL
GASTEIGER

@<TRIPOS>ATOM
      1 P          22.8954   72.4299   -2.7728 P.3     1  UNL1        0.2189
      2 O          23.0856   71.1400   -2.0731 O.2     1  UNL1       -0.5170
      3 O          23.5131   72.3315   -4.2567 O.3     1  UNL1       -0.4371
      4 O          21.3249   72.7637   -2.8663 O.3     1  UNL1       -0.3112
      5 C          20.6295   71.5230   -2.7333 C.3     1  UNL1        0.1811
      6 C          18.1882   71.2008   -5.3531 C.3     1  UNL1        0.2383
      7 C          18.0623   69.8869   -4.5402 C.3     1  UNL1        0.1895
      8 O          16.7230   69.3890   -4.5799 O.3     1  UNL1       -0.3779
      9 C          18.4369   70.3530   -3.1092 C.3     1  UNL1        0.1713
     10 C          19.2291   71.6542   -3.3349 C.3     1  UNL1        0.1764
     11 O          19.3249   71.8594   -4.7550 O.3     1  UNL1       -0.3308
     12 O          17.2585   70.6037   -2.3409 O.3     1  UNL1       -0.3794
     13 H          16.7128   68.5744   -4.0581 H       1  UNL1        0.2106
     14 H          16.7772   69.7671   -2.2852 H       1  UNL1        0.2105
     15 N          18.4428   70.9135   -6.7657 N.ar    1  UNL1       -0.2551
     16 C          17.4095   70.7806   -7.6160 C.ar    1  UNL1        0.3323
     17 N          17.6164   70.5200   -8.9202 N.ar    1  UNL1       -0.2743
     18 C          18.8689   70.3776   -9.3949 C.ar    1  UNL1        0.2626
     19 C          19.9668   70.5093   -8.5097 C.ar    1  UNL1        0.0795
     20 C          19.7312   70.7750   -7.2073 C.ar    1  UNL1        0.0869
     21 O          16.2741   70.9068   -7.2025 O.2     1  UNL1       -0.2464
     22 O          19.0570   70.1370  -10.5744 O.2     1  UNL1       -0.2670
     23 H          16.8591   70.4315   -9.5205 H       1  UNL1        0.1734
     24 O          23.6460   73.5976   -1.9570 O.3     1  UNL1       -0.2703
     25 P          24.0914   74.7072   -3.0342 P.3     1  UNL1        0.2208
     26 O          24.5507   75.9235   -2.3279 O.2     1  UNL1       -0.5170
     27 O          25.2917   74.1264   -3.9375 O.3     1  UNL1       -0.4371
     28 O          22.8402   75.0735   -3.9777 O.3     1  UNL1       -0.2858
     29 C          23.3507   75.8534   -5.0598 C.3     1  UNL1        0.2704
     30 C          22.5471   77.1495   -5.1769 C.3     1  UNL1        0.1967
     31 C          21.0731   76.8030   -5.4082 C.3     1  UNL1        0.1715
     32 C          20.9742   75.8629   -6.6149 C.3     1  UNL1        0.1694
     33 C          21.8964   74.6625   -6.3876 C.3     1  UNL1        0.1761
     34 O          22.6792   77.9051   -3.9715 O.3     1  UNL1       -0.3775
     35 O          20.3336   77.9985   -5.6660 O.3     1  UNL1       -0.3794
     36 O          21.3712   76.5594   -7.7970 O.3     1  UNL1       -0.3794
     37 O          23.2468   75.1083   -6.2708 O.3     1  UNL1       -0.3258
     38 H          23.6212   78.0941   -3.8626 H       1  UNL1        0.2106
     39 H          20.4336   78.5625   -4.8888 H       1  UNL1        0.2105
     40 H          20.7685   77.3079   -7.8966 H       1  UNL1        0.2105
     41 C          21.7793   73.7002   -7.5717 C.3     1  UNL1        0.1693
     42 O          22.8658   72.7730   -7.5402 O.3     1  UNL1       -0.3794
     43 H          22.7546   72.1857   -8.3004 H       1  UNL1        0.2105
@<TRIPOS>BOND
     1    15    16   ar
     2    15    20   ar
     3    15     6    1
     4    16    17   ar
     5    16    21    2
     6    17    18   ar
     7    17    23    1
     8    18    19   ar
     9    18    22    2
    10    19    20   ar
    11     6     7    1
    12     6    11    1
    13     7     8    1
    14     7     9    1
    15     8    13    1
    16     9    10    1
    17     9    12    1
    18    10    11    1
    19    10     5    1
    20    12    14    1
    21     5     4    1
    22     4     1    1
    23     1     2    2
    24     1     3    1
    25     1    24    1
    26    24    25    1
    27    25    26    2
    28    25    27    1
    29    25    28    1
    30    28    29    1
    31    29    30    1
    32    29    37    1
    33    30    31    1
    34    30    34    1
    35    31    32    1
    36    31    35    1
    37    32    33    1
    38    32    36    1
    39    33    41    1
    40    33    37    1
    41    41    42    1
    42    34    38    1
    43    35    39    1
    44    36    40    1
    45    42    43    1
@<TRIPOS>MOLECULE
GDU
 43 45 0 0 0
SMALL
GASTEIGER

@<TRIPOS>ATOM
      1 P          21.6028   70.4861   -0.4951 P.3     1  UNL1        0.2189
      2 O          21.5976   69.3301    0.4285 O.2     1  UNL1       -0.5170
      3 O          23.1144   70.8008   -0.9523 O.3     1  UNL1       -0.4371
      4 O          20.7110   70.1438   -1.7890 O.3     1  UNL1       -0.3112
      5 C          20.7070   71.3128   -2.6099 C.3     1  UNL1        0.1811
      6 C          18.2334   71.1825   -5.2160 C.3     1  UNL1        0.2383
      7 C          18.0580   69.8486   -4.4460 C.3     1  UNL1        0.1895
      8 O          16.6984   69.4096   -4.4896 O.3     1  UNL1       -0.3779
      9 C          18.4635   70.2502   -3.0039 C.3     1  UNL1        0.1713
     10 C          19.3088   71.5234   -3.1937 C.3     1  UNL1        0.1764
     11 O          19.4020   71.7718   -4.6071 O.3     1  UNL1       -0.3308
     12 O          17.3029   70.5249   -2.2168 O.3     1  UNL1       -0.3794
     13 H          16.6574   68.5792   -3.9951 H       1  UNL1        0.2106
     14 H          16.7868   69.7080   -2.1843 H       1  UNL1        0.2105
     15 N          18.4644   70.9322   -6.6397 N.ar    1  UNL1       -0.2551
     16 C          17.4168   70.8114   -7.4740 C.ar    1  UNL1        0.3323
     17 N          17.6017   70.5846   -8.7879 N.ar    1  UNL1       -0.2743
     18 C          18.8464   70.4646   -9.2886 C.ar    1  UNL1        0.2626
     19 C          19.9592   70.5839   -8.4206 C.ar    1  UNL1        0.0795
     20 C          19.7455   70.8155   -7.1079 C.ar    1  UNL1        0.0869
     21 O          16.2881   70.9177   -7.0370 O.2     1  UNL1       -0.2464
     22 O          19.0146   70.2546  -10.4769 O.2     1  UNL1       -0.2670
     23 H          16.8342   70.5044   -9.3763 H       1  UNL1        0.1734
     24 O          20.9914   71.7733    0.2544 O.3     1  UNL1       -0.2703
     25 P          21.9857   72.1209    1.4711 P.3     1  UNL1        0.2208
     26 O          22.7913   70.9260    1.8064 O.2     1  UNL1       -0.5170
     27 O          22.9654   73.3232    1.0364 O.3     1  UNL1       -0.4371
     28 O          21.1269   72.5683    2.7565 O.3     1  UNL1       -0.2858
     29 C          21.3874   73.9567    2.9669 C.3     1  UNL1        0.2704
     30 C          22.2171   74.1318    4.2398 C.3     1  UNL1        0.1967
     31 C          21.4450   73.5410    5.4235 C.3     1  UNL1        0.1715
     32 C          20.0491   74.1730    5.4627 C.3     1  UNL1        0.1694
     33 C          19.3826   73.9928    4.0965 C.3     1  UNL1        0.1761
     34 O          23.4659   73.4532    4.0943 O.3     1  UNL1       -0.3775
     35 O          22.1385   73.8270    6.6399 O.3     1  UNL1       -0.3794
     36 O          20.1629   75.5644    5.7643 O.3     1  UNL1       -0.3794
     37 O          20.1517   74.6563    3.0944 O.3     1  UNL1       -0.3258
     38 H          23.9133   73.8519    3.3355 H       1  UNL1        0.2106
     39 H          23.0120   73.4221    6.5660 H       1  UNL1        0.2105
     40 H          20.5919   75.6295    6.6275 H       1  UNL1        0.2105
     41 C          17.9743   74.5904    4.1352 C.3     1  UNL1        0.1693
     42 O          17.4579   74.5049    5.4645 O.3     1  UNL1       -0.3794
     43 H          16.5717   74.8918    5.4459 H       1  UNL1        0.2105
@<TRIPOS>BOND
     1    15    16   ar
     2    15    20   ar
     3    15     6    1
     4    16    17   ar
     5    16    21    2
     6    17    18   ar
     7    17    23    1
     8    18    19   ar
     9    18    22    2
    10    19    20   ar
    11     6     7    1
    12     6    11    1
    13     7     8    1
    14     7     9    1
    15     8    13    1
    16     9    10    1
    17     9    12    1
    18    10    11    1
    19    10     5    1
    20    12    14    1
    21     5     4    1
    22     4     1    1
    23     1     2    2
    24     1     3    1
    25     1    24    1
    26    24    25    1
    27    25    26    2
    28    25    27    1
    29    25    28    1
    30    28    29    1
    31    29    30    1
    32    29    37    1
    33    30    31    1
    34    30    34    1
    35    31    32    1
    36    31    35    1
    37    32    33    1
    38    32    36    1
    39    33    41    1
    40    33    37    1
    41    41    42    1
    42    34    38    1
    43    35    39    1
    44    36    40    1
    45    42    43    1
@<TRIPOS>MOLECULE
GDU
 43 45 0 0 0
SMALL
GASTEIGER

@<TRIPOS>ATOM
      1 P          22.6047   71.7737   -1.4801 P.3     1  UNL1        0.2189
      2 O          23.1549   70.4763   -1.9313 O.2     1  UNL1       -0.5170
      3 O          23.1919   72.9556   -2.4028 O.3     1  UNL1       -0.4371
      4 O          21.0009   71.7472   -1.5981 O.3     1  UNL1       -0.3112
      5 C          20.6802   70.8762   -2.6839 C.3     1  UNL1        0.1811
      6 C          18.2411   71.1201   -5.3142 C.3     1  UNL1        0.2383
      7 C          17.8968   69.7958   -4.5858 C.3     1  UNL1        0.1895
      8 O          16.4948   69.5257   -4.6544 O.3     1  UNL1       -0.3779
      9 C          18.3300   70.1042   -3.1289 C.3     1  UNL1        0.1713
     10 C          19.3249   71.2708   -3.2733 C.3     1  UNL1        0.1764
     11 O          19.4646   71.5463   -4.6779 O.3     1  UNL1       -0.3308
     12 O          17.2015   70.4946   -2.3441 O.3     1  UNL1       -0.3794
     13 H          16.3480   68.6926   -4.1851 H       1  UNL1        0.2106
     14 H          16.5903   69.7455   -2.3404 H       1  UNL1        0.2105
     15 N          18.4576   70.8843   -6.7426 N.ar    1  UNL1       -0.2551
     16 C          17.4055   70.8454   -7.5791 C.ar    1  UNL1        0.3323
     17 N          17.5774   70.6338   -8.8973 N.ar    1  UNL1       -0.2743
     18 C          18.8128   70.4468   -9.4005 C.ar    1  UNL1        0.2626
     19 C          19.9300   70.4795   -8.5304 C.ar    1  UNL1        0.0795
     20 C          19.7296   70.6977   -7.2133 C.ar    1  UNL1        0.0869
     21 O          16.2851   71.0128   -7.1399 O.2     1  UNL1       -0.2464
     22 O          18.9690   70.2505  -10.5927 O.2     1  UNL1       -0.2670
     23 H          16.8071   70.6131   -9.4870 H       1  UNL1        0.1734
     24 O          23.0272   72.0309    0.0522 O.3     1  UNL1       -0.2703
     25 P          22.1848   70.9935    0.9489 P.3     1  UNL1        0.2208
     26 O          21.3939   70.1078    0.0662 O.2     1  UNL1       -0.5170
     27 O          23.1958   70.1048    1.8333 O.3     1  UNL1       -0.4371
     28 O          21.1939   71.8057    1.9228 O.3     1  UNL1       -0.2858
     29 C          21.9184   72.9406    2.3992 C.3     1  UNL1        0.2704
     30 C          21.6366   73.1355    3.8898 C.3     1  UNL1        0.1967
     31 C          20.1308   73.3317    4.0911 C.3     1  UNL1        0.1715
     32 C          19.6598   74.4736    3.1834 C.3     1  UNL1        0.1694
     33 C          20.0902   74.1759    1.7450 C.3     1  UNL1        0.1761
     34 O          22.0717   71.9832    4.6138 O.3     1  UNL1       -0.3775
     35 O          19.8679   73.6610    5.4567 O.3     1  UNL1       -0.3794
     36 O          20.2451   75.7018    3.6179 O.3     1  UNL1       -0.3794
     37 O          21.5132   74.0994    1.6744 O.3     1  UNL1       -0.3258
     38 H          23.0209   71.8945    4.4528 H       1  UNL1        0.2106
     39 H          20.1900   72.9230    5.9896 H       1  UNL1        0.2105
     40 H          19.9523   75.8451    4.5273 H       1  UNL1        0.2105
     41 C          19.5948   75.2936    0.8245 C.3     1  UNL1        0.1693
     42 O          20.6062   75.6017   -0.1362 O.3     1  UNL1       -0.3794
     43 H          20.2550   76.3081   -0.6956 H       1  UNL1        0.2105
@<TRIPOS>BOND
     1    15    16   ar
     2    15    20   ar
     3    15     6    1
     4    16    17   ar
     5    16    21    2
     6    17    18   ar
     7    17    23    1
     8    18    19   ar
     9    18    22    2
    10    19    20   ar
    11     6     7    1
    12     6    11    1
    13     7     8    1
    14     7     9    1
    15     8    13    1
    16     9    10    1
    17     9    12    1
    18    10    11    1
    19    10     5    1
    20    12    14    1
    21     5     4    1
    22     4     1    1
    23     1     2    2
    24     1     3    1
    25     1    24    1
    26    24    25    1
    27    25    26    2
    28    25    27    1
    29    25    28    1
    30    28    29    1
    31    29    30    1
    32    29    37    1
    33    30    31    1
    34    30    34    1
    35    31    32    1
    36    31    35    1
    37    32    33    1
    38    32    36    1
    39    33    41    1
    40    33    37    1
    41    41    42    1
    42    34    38    1
    43    35    39    1
    44    36    40    1
    45    42    43    1
@<TRIPOS>MOLECULE
GDU
 43 45 0 0 0
SMALL
GASTEIGER

@<TRIPOS>ATOM
      1 P          22.4185   73.7163   -4.3429 P.3     1  UNL1        0.2189
      2 O          23.1733   74.4702   -5.3683 O.2     1  UNL1       -0.5170
      3 O          22.9894   72.2133   -4.2534 O.3     1  UNL1       -0.4371
      4 O          22.5834   74.4388   -2.9154 O.3     1  UNL1       -0.3112
      5 C          21.7768   73.7112   -1.9878 C.3     1  UNL1        0.1811
      6 C          22.9440   72.2044    1.0609 C.3     1  UNL1        0.2383
      7 C          21.8504   71.2360    0.5421 C.3     1  UNL1        0.1895
      8 O          22.1381   69.8893    0.9256 O.3     1  UNL1       -0.3779
      9 C          21.9651   71.4099   -0.9948 C.3     1  UNL1        0.1713
     10 C          22.6621   72.7723   -1.1663 C.3     1  UNL1        0.1764
     11 O          22.8672   73.3196    0.1477 O.3     1  UNL1       -0.3308
     12 O          22.7556   70.3615   -1.5586 O.3     1  UNL1       -0.3794
     13 H          21.4234   69.3405    0.5739 H       1  UNL1        0.2106
     14 H          22.2977   69.5317   -1.3675 H       1  UNL1        0.2105
     15 N          22.6476   72.6358    2.4279 N.ar    1  UNL1       -0.2551
     16 C          21.4289   72.4092    2.9492 C.ar    1  UNL1        0.3323
     17 N          21.1317   72.7926    4.2049 N.ar    1  UNL1       -0.2743
     18 C          22.0528   73.4218    4.9597 C.ar    1  UNL1        0.2626
     19 C          23.3389   73.6723    4.4218 C.ar    1  UNL1        0.0795
     20 C          23.6118   73.2734    3.1613 C.ar    1  UNL1        0.0869
     21 O          20.5878   71.8423    2.2805 O.2     1  UNL1       -0.2464
     22 O          21.7832   73.7735    6.0947 O.2     1  UNL1       -0.2670
     23 H          20.2484   72.6172    4.5665 H       1  UNL1        0.1734
     24 O          20.8607   73.6740   -4.7476 O.3     1  UNL1       -0.2703
     25 P          20.7975   73.6190   -6.3548 P.3     1  UNL1        0.2208
     26 O          21.1051   74.9570   -6.9064 O.2     1  UNL1       -0.5170
     27 O          21.8769   72.5541   -6.8979 O.3     1  UNL1       -0.4371
     28 O          19.3232   73.1717   -6.8200 O.3     1  UNL1       -0.2858
     29 C          19.3603   71.7570   -7.0129 C.3     1  UNL1        0.2704
     30 C          18.3023   71.3556   -8.0418 C.3     1  UNL1        0.1967
     31 C          16.9245   71.7968   -7.5384 C.3     1  UNL1        0.1715
     32 C          16.7128   71.2300   -6.1300 C.3     1  UNL1        0.1694
     33 C          17.8914   71.6431   -5.2449 C.3     1  UNL1        0.1761
     34 O          18.5834   71.9909   -9.2902 O.3     1  UNL1       -0.3775
     35 O          15.9112   71.3005   -8.4155 O.3     1  UNL1       -0.3794
     36 O          16.6342   69.8054   -6.1950 O.3     1  UNL1       -0.3794
     37 O          19.1021   71.1031   -5.7726 O.3     1  UNL1       -0.3258
     38 H          19.4604   71.6906   -9.5649 H       1  UNL1        0.2106
     39 H          16.0905   71.6718   -9.2886 H       1  UNL1        0.2105
     40 H          15.8842   69.5923   -6.7654 H       1  UNL1        0.2105
     41 C          17.6731   71.1110   -3.8267 C.3     1  UNL1        0.1693
     42 O          16.3014   70.7474   -3.6612 O.3     1  UNL1       -0.3794
     43 H          16.2065   70.4173   -2.7572 H       1  UNL1        0.2105
@<TRIPOS>BOND
     1    15    16   ar
     2    15    20   ar
     3    15     6    1
     4    16    17   ar
     5    16    21    2
     6    17    18   ar
     7    17    23    1
     8    18    19   ar
     9    18    22    2
    10    19    20   ar
    11     6     7    1
    12     6    11    1
    13     7     8    1
    14     7     9    1
    15     8    13    1
    16     9    10    1
    17     9    12    1
    18    10    11    1
    19    10     5    1
    20    12    14    1
    21     5     4    1
    22     4     1    1
    23     1     2    2
    24     1     3    1
    25     1    24    1
    26    24    25    1
    27    25    26    2
    28    25    27    1
    29    25    28    1
    30    28    29    1
    31    29    30    1
    32    29    37    1
    33    30    31    1
    34    30    34    1
    35    31    32    1
    36    31    35    1
    37    32    33    1
    38    32    36    1
    39    33    41    1
    40    33    37    1
    41    41    42    1
    42    34    38    1
    43    35    39    1
    44    36    40    1
    45    42    43    1
@<TRIPOS>MOLECULE
GDU
 43 45 0 0 0
SMALL
GASTEIGER

@<TRIPOS>ATOM
      1 P          22.6265   70.9771   -2.0880 P.3     1  UNL1        0.2189
      2 O          23.3353   70.7438   -3.3658 O.2     1  UNL1       -0.5170
      3 O          22.5821   72.5570   -1.7797 O.3     1  UNL1       -0.4371
      4 O          21.1257   70.4089   -2.1949 O.3     1  UNL1       -0.3112
      5 C          20.8717   70.1691   -3.5800 C.3     1  UNL1        0.1811
      6 C          19.9037   72.7062   -5.9366 C.3     1  UNL1        0.2383
      7 C          19.2044   71.4184   -6.4421 C.3     1  UNL1        0.1895
      8 O          17.9746   71.7308   -7.1004 O.3     1  UNL1       -0.3779
      9 C          18.9446   70.6496   -5.1205 C.3     1  UNL1        0.1713
     10 C          19.9509   71.2609   -4.1279 C.3     1  UNL1        0.1764
     11 O          20.7247   72.2377   -4.8458 O.3     1  UNL1       -0.3308
     12 O          17.6028   70.8595   -4.6760 O.3     1  UNL1       -0.3794
     13 H          17.5919   70.8907   -7.3895 H       1  UNL1        0.2106
     14 H          17.0216   70.5096   -5.3648 H       1  UNL1        0.2105
     15 N          20.7325   73.2934   -6.9907 N.ar    1  UNL1       -0.2551
     16 C          21.1372   72.5321   -8.0226 C.ar    1  UNL1        0.3323
     17 N          21.8969   73.0483   -9.0067 N.ar    1  UNL1       -0.2743
     18 C          22.2739   74.3408   -8.9677 C.ar    1  UNL1        0.2626
     19 C          21.8598   75.1532   -7.8838 C.ar    1  UNL1        0.0795
     20 C          21.0948   74.6112   -6.9125 C.ar    1  UNL1        0.0869
     21 O          20.8046   71.3646   -8.0717 O.2     1  UNL1       -0.2464
     22 O          22.9655   74.8078   -9.8555 O.2     1  UNL1       -0.2670
     23 H          22.1764   72.4854   -9.7461 H       1  UNL1        0.1734
     24 O          23.4044   70.2212   -0.8981 O.3     1  UNL1       -0.2703
     25 P          22.6098   70.5506    0.4621 P.3     1  UNL1        0.2208
     26 O          21.2009   70.1196    0.3268 O.2     1  UNL1       -0.5170
     27 O          23.2960   69.7633    1.6883 O.3     1  UNL1       -0.4371
     28 O          22.6628   72.1339    0.7458 O.3     1  UNL1       -0.2858
     29 C          21.5921   72.4307    1.6432 C.3     1  UNL1        0.2704
     30 C          20.7433   73.5644    1.0658 C.3     1  UNL1        0.1967
     31 C          21.6308   74.7952    0.8569 C.3     1  UNL1        0.1715
     32 C          22.3393   75.1183    2.1772 C.3     1  UNL1        0.1694
     33 C          23.0694   73.8662    2.6696 C.3     1  UNL1        0.1761
     34 O          20.1865   73.1561   -0.1850 O.3     1  UNL1       -0.3775
     35 O          20.8251   75.9060    0.4573 O.3     1  UNL1       -0.3794
     36 O          21.3759   75.5286    3.1485 O.3     1  UNL1       -0.3794
     37 O          22.1270   72.8212    2.9058 O.3     1  UNL1       -0.3258
     38 H          19.6427   72.3766   -0.0072 H       1  UNL1        0.2106
     39 H          20.3910   75.6544   -0.3676 H       1  UNL1        0.2105
     40 H          20.9384   76.3138    2.7945 H       1  UNL1        0.2105
     41 C          23.8088   74.1875    3.9704 C.3     1  UNL1        0.1693
     42 O          24.1108   75.5832    4.0135 O.3     1  UNL1       -0.3794
     43 H          24.5745   75.7437    4.8468 H       1  UNL1        0.2105
@<TRIPOS>BOND
     1    15    16   ar
     2    15    20   ar
     3    15     6    1
     4    16    17   ar
     5    16    21    2
     6    17    18   ar
     7    17    23    1
     8    18    19   ar
     9    18    22    2
    10    19    20   ar
    11     6     7    1
    12     6    11    1
    13     7     8    1
    14     7     9    1
    15     8    13    1
    16     9    10    1
    17     9    12    1
    18    10    11    1
    19    10     5    1
    20    12    14    1
    21     5     4    1
    22     4     1    1
    23     1     2    2
    24     1     3    1
    25     1    24    1
    26    24    25    1
    27    25    26    2
    28    25    27    1
    29    25    28    1
    30    28    29    1
    31    29    30    1
    32    29    37    1
    33    30    31    1
    34    30    34    1
    35    31    32    1
    36    31    35    1
    37    32    33    1
    38    32    36    1
    39    33    41    1
    40    33    37    1
    41    41    42    1
    42    34    38    1
    43    35    39    1
    44    36    40    1
    45    42    43    1
@<TRIPOS>MOLECULE
GDU
 43 45 0 0 0
SMALL
GASTEIGER

@<TRIPOS>ATOM
      1 P          22.2187   70.8820   -0.4014 P.3     1  UNL1        0.2189
      2 O          21.2460   69.9315    0.1816 O.2     1  UNL1       -0.5170
      3 O          23.4519   70.0651   -1.0376 O.3     1  UNL1       -0.4371
      4 O          21.5001   71.7492   -1.5496 O.3     1  UNL1       -0.3112
      5 C          21.2023   70.8519   -2.6205 C.3     1  UNL1        0.1811
      6 C          18.5239   70.8754   -5.0190 C.3     1  UNL1        0.2383
      7 C          18.4791   69.4550   -4.3996 C.3     1  UNL1        0.1895
      8 O          17.1434   68.9464   -4.3864 O.3     1  UNL1       -0.3779
      9 C          18.9868   69.7135   -2.9571 C.3     1  UNL1        0.1713
     10 C          19.7508   71.0465   -3.0625 C.3     1  UNL1        0.1764
     11 O          19.7106   71.4582   -4.4398 O.3     1  UNL1       -0.3308
     12 O          17.8861   69.8301   -2.0535 O.3     1  UNL1       -0.3794
     13 H          17.1847   68.0644   -3.9912 H       1  UNL1        0.2106
     14 H          17.4144   68.9865   -2.0763 H       1  UNL1        0.2105
     15 N          18.6439   70.8015   -6.4760 N.ar    1  UNL1       -0.2551
     16 C          17.5350   70.7380   -7.2341 C.ar    1  UNL1        0.3323
     17 N          17.6176   70.6729   -8.5761 N.ar    1  UNL1       -0.2743
     18 C          18.8197   70.6604   -9.1835 C.ar    1  UNL1        0.2626
     19 C          19.9964   70.7209   -8.3975 C.ar    1  UNL1        0.0795
     20 C          19.8849   70.7899   -7.0539 C.ar    1  UNL1        0.0869
     21 O          16.4436   70.7489   -6.7004 O.2     1  UNL1       -0.2464
     22 O          18.8955   70.5967  -10.3979 O.2     1  UNL1       -0.2670
     23 H          16.8068   70.6320   -9.1078 H       1  UNL1        0.1734
     24 O          22.7652   71.8640    0.7517 O.3     1  UNL1       -0.2703
     25 P          22.0003   73.2682    0.5699 P.3     1  UNL1        0.2208
     26 O          22.6101   74.0206   -0.5487 O.2     1  UNL1       -0.5170
     27 O          20.4461   72.9948    0.2478 O.3     1  UNL1       -0.4371
     28 O          22.1231   74.1269    1.9255 O.3     1  UNL1       -0.2858
     29 C          22.7773   73.2958    2.8853 C.3     1  UNL1        0.2704
     30 C          21.7440   72.7415    3.8673 C.3     1  UNL1        0.1967
     31 C          21.0352   73.9107    4.5580 C.3     1  UNL1        0.1715
     32 C          22.0947   74.8300    5.1759 C.3     1  UNL1        0.1694
     33 C          23.1011   75.2278    4.0932 C.3     1  UNL1        0.1761
     34 O          20.7874   71.9506    3.1597 O.3     1  UNL1       -0.3775
     35 O          20.1727   73.4117    5.5824 O.3     1  UNL1       -0.3794
     36 O          22.7678   74.1418    6.2310 O.3     1  UNL1       -0.3794
     37 O          23.7518   74.0622    3.5893 O.3     1  UNL1       -0.3258
     38 H          21.2776   71.2329    2.7360 H       1  UNL1        0.2106
     39 H          19.5327   72.8313    5.1513 H       1  UNL1        0.2105
     40 H          22.0964   73.9065    6.8846 H       1  UNL1        0.2105
     41 C          24.1444   76.1738    4.6920 C.3     1  UNL1        0.1693
     42 O          25.1303   75.4127    5.3918 O.3     1  UNL1       -0.3794
     43 H          25.7677   76.0444    5.7523 H       1  UNL1        0.2105
@<TRIPOS>BOND
     1    15    16   ar
     2    15    20   ar
     3    15     6    1
     4    16    17   ar
     5    16    21    2
     6    17    18   ar
     7    17    23    1
     8    18    19   ar
     9    18    22    2
    10    19    20   ar
    11     6     7    1
    12     6    11    1
    13     7     8    1
    14     7     9    1
    15     8    13    1
    16     9    10    1
    17     9    12    1
    18    10    11    1
    19    10     5    1
    20    12    14    1
    21     5     4    1
    22     4     1    1
    23     1     2    2
    24     1     3    1
    25     1    24    1
    26    24    25    1
    27    25    26    2
    28    25    27    1
    29    25    28    1
    30    28    29    1
    31    29    30    1
    32    29    37    1
    33    30    31    1
    34    30    34    1
    35    31    32    1
    36    31    35    1
    37    32    33    1
    38    32    36    1
    39    33    41    1
    40    33    37    1
    41    41    42    1
    42    34    38    1
    43    35    39    1
    44    36    40    1
    45    42    43    1
@<TRIPOS>MOLECULE
GDU
 43 45 0 0 0
SMALL
GASTEIGER

@<TRIPOS>ATOM
      1 P          22.4694   70.9721   -2.2096 P.3     1  UNL1        0.2189
      2 O          21.6451   69.7681   -1.9638 O.2     1  UNL1       -0.5170
      3 O          23.5607   70.6516   -3.3495 O.3     1  UNL1       -0.4371
      4 O          21.5248   72.1798   -2.6955 O.3     1  UNL1       -0.3112
      5 C          20.4121   71.5894   -3.3693 C.3     1  UNL1        0.1811
      6 C          19.5015   72.4033   -6.7509 C.3     1  UNL1        0.2383
      7 C          20.3126   73.6298   -6.2605 C.3     1  UNL1        0.1895
      8 O          21.0102   74.2466   -7.3450 O.3     1  UNL1       -0.3779
      9 C          21.3060   72.9835   -5.2601 C.3     1  UNL1        0.1713
     10 C          20.6395   71.6480   -4.8809 C.3     1  UNL1        0.1764
     11 O          19.3773   71.5864   -5.5674 O.3     1  UNL1       -0.3308
     12 O          22.5706   72.7591   -5.8864 O.3     1  UNL1       -0.3794
     13 H          21.4923   74.9991   -6.9745 H       1  UNL1        0.2106
     14 H          22.9087   73.6247   -6.1530 H       1  UNL1        0.2105
     15 N          18.1825   72.8144   -7.2347 N.ar    1  UNL1       -0.2551
     16 C          17.5069   72.0212   -8.0848 C.ar    1  UNL1        0.3323
     17 N          16.2910   72.3741   -8.5417 N.ar    1  UNL1       -0.2743
     18 C          15.7330   73.5391   -8.1600 C.ar    1  UNL1        0.2626
     19 C          16.4355   74.3874   -7.2695 C.ar    1  UNL1        0.0795
     20 C          17.6515   74.0072   -6.8231 C.ar    1  UNL1        0.0869
     21 O          17.9973   70.9671   -8.4377 O.2     1  UNL1       -0.2464
     22 O          14.6345   73.8617   -8.5768 O.2     1  UNL1       -0.2670
     23 H          15.8158   71.7874   -9.1514 H       1  UNL1        0.1734
     24 O          23.2230   71.3921   -0.8501 O.3     1  UNL1       -0.2703
     25 P          22.3541   70.7986    0.3676 P.3     1  UNL1        0.2208
     26 O          20.9186   70.8308    0.0105 O.2     1  UNL1       -0.5170
     27 O          22.8012   69.2781    0.6545 O.3     1  UNL1       -0.4371
     28 O          22.6000   71.6870    1.6868 O.3     1  UNL1       -0.2858
     29 C          21.4128   72.4520    1.8992 C.3     1  UNL1        0.2704
     30 C          21.5879   73.8436    1.2892 C.3     1  UNL1        0.1967
     31 C          22.7946   74.5256    1.9413 C.3     1  UNL1        0.1715
     32 C          22.6097   74.4988    3.4627 C.3     1  UNL1        0.1694
     33 C          22.3589   73.0560    3.9083 C.3     1  UNL1        0.1761
     34 O          21.8055   73.7256   -0.1179 O.3     1  UNL1       -0.3775
     35 O          22.8834   75.8786    1.4898 O.3     1  UNL1       -0.3794
     36 O          21.4950   75.3158    3.8230 O.3     1  UNL1       -0.3794
     37 O          21.1661   72.5645    3.2988 O.3     1  UNL1       -0.3258
     38 H          21.0265   73.2857   -0.4847 H       1  UNL1        0.2106
     39 H          22.9865   75.8473    0.5302 H       1  UNL1        0.2105
     40 H          21.6941   76.2109    3.5187 H       1  UNL1        0.2105
     41 C          22.2069   73.0133    5.4305 C.3     1  UNL1        0.1693
     42 O          20.8341   73.2039    5.7768 O.3     1  UNL1       -0.3794
     43 H          20.7815   73.1695    6.7418 H       1  UNL1        0.2105
@<TRIPOS>BOND
     1    15    16   ar
     2    15    20   ar
     3    15     6    1
     4    16    17   ar
     5    16    21    2
     6    17    18   ar
     7    17    23    1
     8    18    19   ar
     9    18    22    2
    10    19    20   ar
    11     6     7    1
    12     6    11    1
    13     7     8    1
    14     7     9    1
    15     8    13    1
    16     9    10    1
    17     9    12    1
    18    10    11    1
    19    10     5    1
    20    12    14    1
    21     5     4    1
    22     4     1    1
    23     1     2    2
    24     1     3    1
    25     1    24    1
    26    24    25    1
    27    25    26    2
    28    25    27    1
    29    25    28    1
    30    28    29    1
    31    29    30    1
    32    29    37    1
    33    30    31    1
    34    30    34    1
    35    31    32    1
    36    31    35    1
    37    32    33    1
    38    32    36    1
    39    33    41    1
    40    33    37    1
    41    41    42    1
    42    34    38    1
    43    35    39    1
    44    36    40    1
    45    42    43    1
@<TRIPOS>MOLECULE
GDU
 43 45 0 0 0
SMALL
GASTEIGER

@<TRIPOS>ATOM
      1 P          19.6130   70.4908   -3.1046 P.3     1  UNL1        0.2189
      2 O          19.5210   69.6029   -1.9245 O.2     1  UNL1       -0.5170
      3 O          20.1195   69.6425   -4.3762 O.3     1  UNL1       -0.4371
      4 O          18.1654   71.1172   -3.4195 O.3     1  UNL1       -0.3112
      5 C          18.1956   72.4738   -2.9731 C.3     1  UNL1        0.1811
      6 C          17.7299   73.2908   -6.4434 C.3     1  UNL1        0.2383
      7 C          16.3340   72.8162   -5.9647 C.3     1  UNL1        0.1895
      8 O          15.2943   73.4795   -6.6875 O.3     1  UNL1       -0.3779
      9 C          16.3363   73.2502   -4.4758 C.3     1  UNL1        0.1713
     10 C          17.8298   73.4022   -4.1326 C.3     1  UNL1        0.1764
     11 O          18.5802   73.0392   -5.3045 O.3     1  UNL1       -0.3308
     12 O          15.6504   74.4936   -4.3168 O.3     1  UNL1       -0.3794
     13 H          14.4559   73.1410   -6.3436 H       1  UNL1        0.2106
     14 H          14.7382   74.3489   -4.6026 H       1  UNL1        0.2105
     15 N          18.1734   72.5113   -7.6004 N.ar    1  UNL1       -0.2551
     16 C          18.1684   71.1679   -7.5409 C.ar    1  UNL1        0.3323
     17 N          18.5679   70.4278   -8.5918 N.ar    1  UNL1       -0.2743
     18 C          18.9906   71.0249   -9.7227 C.ar    1  UNL1        0.2626
     19 C          19.0067   72.4393   -9.7977 C.ar    1  UNL1        0.0795
     20 C          18.5968   73.1575   -8.7306 C.ar    1  UNL1        0.0869
     21 O          17.7893   70.6151   -6.5277 O.2     1  UNL1       -0.2464
     22 O          19.3569   70.3558  -10.6728 O.2     1  UNL1       -0.2670
     23 H          18.5537   69.4592   -8.5329 H       1  UNL1        0.1734
     24 O          20.6583   71.6775   -2.8020 O.3     1  UNL1       -0.2703
     25 P          21.9642   70.9952   -2.1545 P.3     1  UNL1        0.2208
     26 O          21.6096   69.6625   -1.6184 O.2     1  UNL1       -0.5170
     27 O          23.1009   70.8336   -3.2841 O.3     1  UNL1       -0.4371
     28 O          22.5211   71.9231   -0.9634 O.3     1  UNL1       -0.2858
     29 C          21.4107   72.6712   -0.4663 C.3     1  UNL1        0.2704
     30 C          21.7224   74.1658   -0.5564 C.3     1  UNL1        0.1967
     31 C          22.9836   74.4623    0.2609 C.3     1  UNL1        0.1715
     32 C          22.7852   73.9218    1.6815 C.3     1  UNL1        0.1694
     33 C          22.3945   72.4440    1.6018 C.3     1  UNL1        0.1761
     34 O          21.9387   74.5282   -1.9214 O.3     1  UNL1       -0.3775
     35 O          23.2046   75.8734    0.3080 O.3     1  UNL1       -0.3794
     36 O          21.7508   74.6600    2.3334 O.3     1  UNL1       -0.3794
     37 O          21.1650   72.3088    0.8905 O.3     1  UNL1       -0.3258
     38 H          21.1241   74.3183   -2.3982 H       1  UNL1        0.2106
     39 H          23.3116   76.1706   -0.6045 H       1  UNL1        0.2105
     40 H          22.0366   75.5825    2.3556 H       1  UNL1        0.2105
     41 C          22.2273   71.8853    3.0167 C.3     1  UNL1        0.1693
     42 O          20.8618   72.0082    3.4181 O.3     1  UNL1       -0.3794
     43 H          20.7992   71.6451    4.3123 H       1  UNL1        0.2105
@<TRIPOS>BOND
     1    15    16   ar
     2    15    20   ar
     3    15     6    1
     4    16    17   ar
     5    16    21    2
     6    17    18   ar
     7    17    23    1
     8    18    19   ar
     9    18    22    2
    10    19    20   ar
    11     6     7    1
    12     6    11    1
    13     7     8    1
    14     7     9    1
    15     8    13    1
    16     9    10    1
    17     9    12    1
    18    10    11    1
    19    10     5    1
    20    12    14    1
    21     5     4    1
    22     4     1    1
    23     1     2    2
    24     1     3    1
    25     1    24    1
    26    24    25    1
    27    25    26    2
    28    25    27    1
    29    25    28    1
    30    28    29    1
    31    29    30    1
    32    29    37    1
    33    30    31    1
    34    30    34    1
    35    31    32    1
    36    31    35    1
    37    32    33    1
    38    32    36    1
    39    33    41    1
    40    33    37    1
    41    41    42    1
    42    34    38    1
    43    35    39    1
    44    36    40    1
    45    42    43    1
@<TRIPOS>MOLECULE
GDU
 43 45 0 0 0
SMALL
GASTEIGER

@<TRIPOS>ATOM
      1 P          22.6378   72.0292   -3.4441 P.3     1  UNL1        0.2189
      2 O          23.3393   70.7646   -3.1306 O.2     1  UNL1       -0.5170
      3 O          21.0481   71.8066   -3.3173 O.3     1  UNL1       -0.4371
      4 O          23.1037   73.1717   -2.4123 O.3     1  UNL1       -0.3112
      5 C          22.0714   73.2898   -1.4320 C.3     1  UNL1        0.1811
      6 C          22.7274   73.2109    2.1022 C.3     1  UNL1        0.2383
      7 C          21.2778   72.6794    1.9636 C.3     1  UNL1        0.1895
      8 O          20.9781   71.7397    2.9982 O.3     1  UNL1       -0.3779
      9 C          21.3184   71.9827    0.5785 C.3     1  UNL1        0.1713
     10 C          22.5244   72.6275   -0.1295 C.3     1  UNL1        0.1764
     11 O          23.0663   73.6192    0.7599 O.3     1  UNL1       -0.3308
     12 O          21.5138   70.5756    0.7326 O.3     1  UNL1       -0.3794
     13 H          20.0665   71.4492    2.8555 H       1  UNL1        0.2106
     14 H          20.7573   70.2409    1.2329 H       1  UNL1        0.2105
     15 N          22.7749   74.3533    3.0163 N.ar    1  UNL1       -0.2551
     16 C          21.7514   75.2251    3.0479 C.ar    1  UNL1        0.3323
     17 N          21.7687   76.2817    3.8816 N.ar    1  UNL1       -0.2743
     18 C          22.8221   76.4891    4.6950 C.ar    1  UNL1        0.2626
     19 C          23.9099   75.5823    4.6683 C.ar    1  UNL1        0.0795
     20 C          23.8650   74.5285    3.8257 C.ar    1  UNL1        0.0869
     21 O          20.7941   75.0509    2.3205 O.2     1  UNL1       -0.2464
     22 O          22.8407   77.4479    5.4465 O.2     1  UNL1       -0.2670
     23 H          21.0195   76.8984    3.8943 H       1  UNL1        0.1734
     24 O          22.9966   72.4826   -4.9468 O.3     1  UNL1       -0.2703
     25 P          21.7069   73.2546   -5.5217 P.3     1  UNL1        0.2208
     26 O          21.0783   74.0402   -4.4370 O.2     1  UNL1       -0.5170
     27 O          22.1596   74.2454   -6.7082 O.3     1  UNL1       -0.4371
     28 O          20.6495   72.1840   -6.0925 O.3     1  UNL1       -0.2858
     29 C          19.4808   72.9143   -6.4672 C.3     1  UNL1        0.2704
     30 C          18.2531   72.2833   -5.8085 C.3     1  UNL1        0.1967
     31 C          18.1438   70.8219   -6.2544 C.3     1  UNL1        0.1715
     32 C          18.1587   70.7746   -7.7864 C.3     1  UNL1        0.1694
     33 C          19.3956   71.5189   -8.2954 C.3     1  UNL1        0.1761
     34 O          18.3886   72.3428   -4.3875 O.3     1  UNL1       -0.3775
     35 O          16.9233   70.2610   -5.7662 O.3     1  UNL1       -0.3794
     36 O          16.9779   71.3965   -8.2952 O.3     1  UNL1       -0.3794
     37 O          19.3382   72.8844   -7.8854 O.3     1  UNL1       -0.3258
     38 H          18.4612   73.2781   -4.1531 H       1  UNL1        0.2106
     39 H          16.9526   70.3226   -4.8030 H       1  UNL1        0.2105
     40 H          16.2269   70.8997   -7.9452 H       1  UNL1        0.2105
     41 C          19.4384   71.4482   -9.8235 C.3     1  UNL1        0.1693
     42 O          18.6800   70.3224  -10.2688 O.3     1  UNL1       -0.3794
     43 H          18.7317   70.3144  -11.2345 H       1  UNL1        0.2105
@<TRIPOS>BOND
     1    15    16   ar
     2    15    20   ar
     3    15     6    1
     4    16    17   ar
     5    16    21    2
     6    17    18   ar
     7    17    23    1
     8    18    19   ar
     9    18    22    2
    10    19    20   ar
    11     6     7    1
    12     6    11    1
    13     7     8    1
    14     7     9    1
    15     8    13    1
    16     9    10    1
    17     9    12    1
    18    10    11    1
    19    10     5    1
    20    12    14    1
    21     5     4    1
    22     4     1    1
    23     1     2    2
    24     1     3    1
    25     1    24    1
    26    24    25    1
    27    25    26    2
    28    25    27    1
    29    25    28    1
    30    28    29    1
    31    29    30    1
    32    29    37    1
    33    30    31    1
    34    30    34    1
    35    31    32    1
    36    31    35    1
    37    32    33    1
    38    32    36    1
    39    33    41    1
    40    33    37    1
    41    41    42    1
    42    34    38    1
    43    35    39    1
    44    36    40    1
    45    42    43    1
@<TRIPOS>MOLECULE
GDU
 43 45 0 0 0
SMALL
GASTEIGER

@<TRIPOS>ATOM
      1 P          22.6755   71.4127   -2.2165 P.3     1  UNL1        0.2189
      2 O          23.2508   71.1933   -3.5620 O.2     1  UNL1       -0.5170
      3 O          22.9844   72.9195   -1.7400 O.3     1  UNL1       -0.4371
      4 O          21.0846   71.1818   -2.2684 O.3     1  UNL1       -0.3112
      5 C          20.6960   71.2855   -3.6391 C.3     1  UNL1        0.1811
      6 C          17.5666   71.8196   -5.3270 C.3     1  UNL1        0.2383
      7 C          17.8854   70.3211   -5.5634 C.3     1  UNL1        0.1895
      8 O          16.6835   69.5550   -5.6713 O.3     1  UNL1       -0.3779
      9 C          18.6655   69.9479   -4.2759 C.3     1  UNL1        0.1713
     10 C          19.1695   71.3002   -3.7386 C.3     1  UNL1        0.1764
     11 O          18.7503   72.3157   -4.6665 O.3     1  UNL1       -0.3308
     12 O          17.7979   69.3184   -3.3309 O.3     1  UNL1       -0.3794
     13 H          16.9503   68.6366   -5.8172 H       1  UNL1        0.2106
     14 H          17.4696   68.5100   -3.7473 H       1  UNL1        0.2105
     15 N          17.3578   72.5117   -6.5999 N.ar    1  UNL1       -0.2551
     16 C          18.4113   72.7915   -7.3875 C.ar    1  UNL1        0.3323
     17 N          18.2463   73.4238   -8.5643 N.ar    1  UNL1       -0.2743
     18 C          17.0171   73.7972   -8.9690 C.ar    1  UNL1        0.2626
     19 C          15.8988   73.5143   -8.1471 C.ar    1  UNL1        0.0795
     20 C          16.0920   72.8752   -6.9737 C.ar    1  UNL1        0.0869
     21 O          19.5261   72.4604   -7.0359 O.2     1  UNL1       -0.2464
     22 O          16.8673   74.3739  -10.0318 O.2     1  UNL1       -0.2670
     23 H          19.0173   73.6139   -9.1220 H       1  UNL1        0.1734
     24 O          23.3357   70.3764   -1.1760 O.3     1  UNL1       -0.2703
     25 P          22.5128   70.5092    0.2006 P.3     1  UNL1        0.2208
     26 O          21.1409   69.9901    0.0070 O.2     1  UNL1       -0.5170
     27 O          23.2510   69.6573    1.3511 O.3     1  UNL1       -0.4371
     28 O          22.4454   72.0560    0.6397 O.3     1  UNL1       -0.2858
     29 C          21.2026   72.2408    1.3187 C.3     1  UNL1        0.2704
     30 C          20.5500   73.5393    0.8418 C.3     1  UNL1        0.1967
     31 C          21.4996   74.7076    1.1243 C.3     1  UNL1        0.1715
     32 C          21.8854   74.6779    2.6075 C.3     1  UNL1        0.1694
     33 C          22.4389   73.2926    2.9502 C.3     1  UNL1        0.1761
     34 O          20.2925   73.4584   -0.5612 O.3     1  UNL1       -0.3775
     35 O          20.8462   75.9417    0.8203 O.3     1  UNL1       -0.3794
     36 O          20.7328   74.9482    3.4065 O.3     1  UNL1       -0.3794
     37 O          21.4355   72.3037    2.7238 O.3     1  UNL1       -0.3258
     38 H          19.6982   72.7071   -0.6928 H       1  UNL1        0.2106
     39 H          20.6119   75.9111   -0.1159 H       1  UNL1        0.2105
     40 H          20.4161   75.8251    3.1533 H       1  UNL1        0.2105
     41 C          22.8593   73.2628    4.4214 C.3     1  UNL1        0.1693
     42 O          21.8782   72.5557    5.1820 O.3     1  UNL1       -0.3794
     43 H          22.1804   72.5592    6.1006 H       1  UNL1        0.2105
@<TRIPOS>BOND
     1    15    16   ar
     2    15    20   ar
     3    15     6    1
     4    16    17   ar
     5    16    21    2
     6    17    18   ar
     7    17    23    1
     8    18    19   ar
     9    18    22    2
    10    19    20   ar
    11     6     7    1
    12     6    11    1
    13     7     8    1
    14     7     9    1
    15     8    13    1
    16     9    10    1
    17     9    12    1
    18    10    11    1
    19    10     5    1
    20    12    14    1
    21     5     4    1
    22     4     1    1
    23     1     2    2
    24     1     3    1
    25     1    24    1
    26    24    25    1
    27    25    26    2
    28    25    27    1
    29    25    28    1
    30    28    29    1
    31    29    30    1
    32    29    37    1
    33    30    31    1
    34    30    34    1
    35    31    32    1
    36    31    35    1
    37    32    33    1
    38    32    36    1
    39    33    41    1
    40    33    37    1
    41    41    42    1
    42    34    38    1
    43    35    39    1
    44    36    40    1
    45    42    43    1
@<TRIPOS>MOLECULE
GDU
 43 45 0 0 0
SMALL
GASTEIGER

@<TRIPOS>ATOM
      1 P          22.8006   72.0598   -3.4960 P.3     1  UNL1        0.2189
      2 O          23.7830   72.9633   -4.1348 O.2     1  UNL1       -0.5170
      3 O          23.4844   70.6265   -3.2289 O.3     1  UNL1       -0.4371
      4 O          22.3180   72.6929   -2.0985 O.3     1  UNL1       -0.3112
      5 C          21.6553   71.6516   -1.3794 C.3     1  UNL1        0.1811
      6 C          21.1778   73.4106    1.7198 C.3     1  UNL1        0.2383
      7 C          21.0994   74.5116    0.6314 C.3     1  UNL1        0.1895
      8 O          20.2271   75.5687    1.0374 O.3     1  UNL1       -0.3779
      9 C          20.5053   73.7360   -0.5731 C.3     1  UNL1        0.1713
     10 C          20.8133   72.2607   -0.2569 C.3     1  UNL1        0.1764
     11 O          21.5497   72.2295    0.9780 O.3     1  UNL1       -0.3308
     12 O          19.0955   73.9522   -0.6602 O.3     1  UNL1       -0.3794
     13 H          20.2229   76.2178    0.3201 H       1  UNL1        0.2106
     14 H          18.9655   74.9001   -0.7992 H       1  UNL1        0.2105
     15 N          22.2003   73.7379    2.7149 N.ar    1  UNL1       -0.2551
     16 C          23.3874   74.2271    2.3152 C.ar    1  UNL1        0.3323
     17 N          24.3433   74.5394    3.2100 N.ar    1  UNL1       -0.2743
     18 C          24.1279   74.3564    4.5270 C.ar    1  UNL1        0.2626
     19 C          22.8843   73.8365    4.9622 C.ar    1  UNL1        0.0795
     20 C          21.9415   73.5356    4.0439 C.ar    1  UNL1        0.0869
     21 O          23.5962   74.3980    1.1306 O.2     1  UNL1       -0.2464
     22 O          24.9942   74.6343    5.3373 O.2     1  UNL1       -0.2670
     23 H          25.1927   74.8954    2.9041 H       1  UNL1        0.1734
     24 O          21.5315   71.8743   -4.4694 O.3     1  UNL1       -0.2703
     25 P          21.5810   73.0789   -5.5354 P.3     1  UNL1        0.2208
     26 O          21.6817   74.3687   -4.8176 O.2     1  UNL1       -0.5170
     27 O          22.8639   72.8962   -6.4921 O.3     1  UNL1       -0.4371
     28 O          20.2415   73.0631   -6.4273 O.3     1  UNL1       -0.2858
     29 C          20.0298   71.7105   -6.8341 C.3     1  UNL1        0.2704
     30 C          19.9651   71.6421   -8.3607 C.3     1  UNL1        0.1967
     31 C          18.8251   72.5395   -8.8521 C.3     1  UNL1        0.1715
     32 C          17.5366   72.1368   -8.1260 C.3     1  UNL1        0.1694
     33 C          17.7852   72.1697   -6.6160 C.3     1  UNL1        0.1761
     34 O          21.2032   72.0931   -8.9129 O.3     1  UNL1       -0.3775
     35 O          18.6568   72.3733  -10.2616 O.3     1  UNL1       -0.3794
     36 O          17.1559   70.8190   -8.5239 O.3     1  UNL1       -0.3794
     37 O          18.8074   71.2341   -6.2760 O.3     1  UNL1       -0.3258
     38 H          21.8912   71.5055   -8.5719 H       1  UNL1        0.2106
     39 H          19.4921   72.6257  -10.6749 H       1  UNL1        0.2105
     40 H          17.0159   70.8446   -9.4794 H       1  UNL1        0.2105
     41 C          16.4946   71.8022   -5.8803 C.3     1  UNL1        0.1693
     42 O          16.4020   70.3814   -5.7633 O.3     1  UNL1       -0.3794
     43 H          15.5775   70.1923   -5.2945 H       1  UNL1        0.2105
@<TRIPOS>BOND
     1    15    16   ar
     2    15    20   ar
     3    15     6    1
     4    16    17   ar
     5    16    21    2
     6    17    18   ar
     7    17    23    1
     8    18    19   ar
     9    18    22    2
    10    19    20   ar
    11     6     7    1
    12     6    11    1
    13     7     8    1
    14     7     9    1
    15     8    13    1
    16     9    10    1
    17     9    12    1
    18    10    11    1
    19    10     5    1
    20    12    14    1
    21     5     4    1
    22     4     1    1
    23     1     2    2
    24     1     3    1
    25     1    24    1
    26    24    25    1
    27    25    26    2
    28    25    27    1
    29    25    28    1
    30    28    29    1
    31    29    30    1
    32    29    37    1
    33    30    31    1
    34    30    34    1
    35    31    32    1
    36    31    35    1
    37    32    33    1
    38    32    36    1
    39    33    41    1
    40    33    37    1
    41    41    42    1
    42    34    38    1
    43    35    39    1
    44    36    40    1
    45    42    43    1
@<TRIPOS>MOLECULE
GDU
 43 45 0 0 0
SMALL
GASTEIGER

@<TRIPOS>ATOM
      1 P          18.0853   70.0880   -3.4395 P.3     1  UNL1        0.2189
      2 O          18.5090   69.1551   -2.3719 O.2     1  UNL1       -0.5170
      3 O          16.7804   70.8988   -2.9568 O.3     1  UNL1       -0.4371
      4 O          19.2757   71.1237   -3.7514 O.3     1  UNL1       -0.3112
      5 C          19.4751   71.8942   -2.5652 C.3     1  UNL1        0.1811
      6 C          22.3979   72.3540   -0.5223 C.3     1  UNL1        0.2383
      7 C          22.3100   70.8213   -0.7363 C.3     1  UNL1        0.1895
      8 O          23.6118   70.2309   -0.7359 O.3     1  UNL1       -0.3779
      9 C          21.6600   70.7262   -2.1412 C.3     1  UNL1        0.1713
     10 C          20.9736   72.0918   -2.3293 C.3     1  UNL1        0.1764
     11 O          21.1827   72.8485   -1.1243 O.3     1  UNL1       -0.3308
     12 O          22.6596   70.5192   -3.1412 O.3     1  UNL1       -0.3794
     13 H          23.4873   69.2813   -0.8725 H       1  UNL1        0.2106
     14 H          23.0921   69.6794   -2.9353 H       1  UNL1        0.2105
     15 N          22.4345   72.6764    0.9051 N.ar    1  UNL1       -0.2551
     16 C          22.0179   71.7681    1.8049 C.ar    1  UNL1        0.3323
     17 N          22.0446   72.0380    3.1233 N.ar    1  UNL1       -0.2743
     18 C          22.4825   73.2331    3.5639 C.ar    1  UNL1        0.2626
     19 C          22.9191   74.2018    2.6273 C.ar    1  UNL1        0.0795
     20 C          22.8857   73.9035    1.3112 C.ar    1  UNL1        0.0869
     21 O          21.6206   70.6855    1.4225 O.2     1  UNL1       -0.2464
     22 O          22.5026   73.4802    4.7569 O.2     1  UNL1       -0.2670
     23 H          21.7441   71.3690    3.7589 H       1  UNL1        0.1734
     24 O          17.7349   69.2542   -4.7716 O.3     1  UNL1       -0.2703
     25 P          17.1312   70.3024   -5.8330 P.3     1  UNL1        0.2208
     26 O          16.2227   69.5952   -6.7623 O.2     1  UNL1       -0.5170
     27 O          16.3122   71.4471   -5.0500 O.3     1  UNL1       -0.4371
     28 O          18.3322   70.9774   -6.6649 O.3     1  UNL1       -0.2858
     29 C          18.0879   72.3845   -6.6787 C.3     1  UNL1        0.2704
     30 C          17.5922   72.8016   -8.0643 C.3     1  UNL1        0.1967
     31 C          18.6504   72.4261   -9.1062 C.3     1  UNL1        0.1715
     32 C          19.9923   73.0343   -8.6831 C.3     1  UNL1        0.1694
     33 C          20.3070   72.5975   -7.2502 C.3     1  UNL1        0.1761
     34 O          16.3682   72.1260   -8.3581 O.3     1  UNL1       -0.3775
     35 O          18.2693   72.9399  -10.3842 O.3     1  UNL1       -0.3794
     36 O          19.9125   74.4590   -8.7468 O.3     1  UNL1       -0.3794
     37 O          19.2942   73.0776   -6.3672 O.3     1  UNL1       -0.3258
     38 H          15.7352   72.3855   -7.6748 H       1  UNL1        0.2106
     39 H          17.4178   72.5410  -10.6036 H       1  UNL1        0.2105
     40 H          19.7076   74.6871   -9.6629 H       1  UNL1        0.2105
     41 C          21.6618   73.1717   -6.8297 C.3     1  UNL1        0.1693
     42 O          22.7039   72.4993   -7.5389 O.3     1  UNL1       -0.3794
     43 H          23.5388   72.8901   -7.2465 H       1  UNL1        0.2105
@<TRIPOS>BOND
     1    15    16   ar
     2    15    20   ar
     3    15     6    1
     4    16    17   ar
     5    16    21    2
     6    17    18   ar
     7    17    23    1
     8    18    19   ar
     9    18    22    2
    10    19    20   ar
    11     6     7    1
    12     6    11    1
    13     7     8    1
    14     7     9    1
    15     8    13    1
    16     9    10    1
    17     9    12    1
    18    10    11    1
    19    10     5    1
    20    12    14    1
    21     5     4    1
    22     4     1    1
    23     1     2    2
    24     1     3    1
    25     1    24    1
    26    24    25    1
    27    25    26    2
    28    25    27    1
    29    25    28    1
    30    28    29    1
    31    29    30    1
    32    29    37    1
    33    30    31    1
    34    30    34    1
    35    31    32    1
    36    31    35    1
    37    32    33    1
    38    32    36    1
    39    33    41    1
    40    33    37    1
    41    41    42    1
    42    34    38    1
    43    35    39    1
    44    36    40    1
    45    42    43    1
@<TRIPOS>MOLECULE
GDU
 43 45 0 0 0
SMALL
GASTEIGER

@<TRIPOS>ATOM
      1 P          22.2685   71.6754   -1.9948 P.3     1  UNL1        0.2189
      2 O          22.7353   70.5445   -1.1625 O.2     1  UNL1       -0.5170
      3 O          20.6587   71.7141   -1.9933 O.3     1  UNL1       -0.4371
      4 O          22.8389   73.0546   -1.3954 O.3     1  UNL1       -0.3112
      5 C          22.0713   73.3468   -0.2267 C.3     1  UNL1        0.1811
      6 C          23.1722   73.5920    3.1873 C.3     1  UNL1        0.2383
      7 C          21.8792   72.7396    3.2556 C.3     1  UNL1        0.1895
      8 O          21.9391   71.8084    4.3384 O.3     1  UNL1       -0.3779
      9 C          21.9031   72.0032    1.8909 C.3     1  UNL1        0.1713
     10 C          22.8271   72.8691    1.0146 C.3     1  UNL1        0.1764
     11 O          23.2339   74.0002    1.8041 O.3     1  UNL1       -0.3308
     12 O          22.4364   70.6863    2.0430 O.3     1  UNL1       -0.3794
     13 H          21.1088   71.3121    4.3256 H       1  UNL1        0.2106
     14 H          21.8478   70.2138    2.6471 H       1  UNL1        0.2105
     15 N          23.0703   74.7589    4.0653 N.ar    1  UNL1       -0.2551
     16 C          23.9805   74.9431    5.0378 C.ar    1  UNL1        0.3323
     17 N          23.9116   76.0095    5.8564 N.ar    1  UNL1       -0.2743
     18 C          22.9182   76.9087    5.7196 C.ar    1  UNL1        0.2626
     19 C          21.9490   76.7244    4.7033 C.ar    1  UNL1        0.0795
     20 C          22.0441   75.6485    3.8934 C.ar    1  UNL1        0.0869
     21 O          24.8827   74.1407    5.1731 O.2     1  UNL1       -0.2464
     22 O          22.8523   77.8717    6.4631 O.2     1  UNL1       -0.2670
     23 H          24.5796   76.1290    6.5502 H       1  UNL1        0.1734
     24 O          22.7979   71.4846   -3.5033 O.3     1  UNL1       -0.2703
     25 P          21.9281   72.4707   -4.4313 P.3     1  UNL1        0.2208
     26 O          21.5323   73.6625   -3.6490 O.2     1  UNL1       -0.5170
     27 O          22.8089   72.9299   -5.6992 O.3     1  UNL1       -0.4371
     28 O          20.6103   71.7028   -4.9448 O.3     1  UNL1       -0.2858
     29 C          19.7646   72.6852   -5.5443 C.3     1  UNL1        0.2704
     30 C          18.3580   72.5748   -4.9539 C.3     1  UNL1        0.1967
     31 C          17.8177   71.1651   -5.2132 C.3     1  UNL1        0.1715
     32 C          17.9203   70.8693   -6.7137 C.3     1  UNL1        0.1694
     33 C          19.3617   71.1074   -7.1705 C.3     1  UNL1        0.1761
     34 O          18.4090   72.8181   -3.5470 O.3     1  UNL1       -0.3775
     35 O          16.4518   71.0908   -4.7991 O.3     1  UNL1       -0.3794
     36 O          17.0376   71.7321   -7.4323 O.3     1  UNL1       -0.3794
     37 O          19.7164   72.4722   -6.9532 O.3     1  UNL1       -0.3258
     38 H          18.7607   73.7113   -3.4309 H       1  UNL1        0.2106
     39 H          16.4340   71.2948   -3.8555 H       1  UNL1        0.2105
     40 H          16.1453   71.5521   -7.1088 H       1  UNL1        0.2105
     41 C          19.4830   70.7817   -8.6609 C.3     1  UNL1        0.1693
     42 O          20.2943   69.6179   -8.8289 O.3     1  UNL1       -0.3794
     43 H          20.3449   69.4467   -9.7794 H       1  UNL1        0.2105
@<TRIPOS>BOND
     1    15    16   ar
     2    15    20   ar
     3    15     6    1
     4    16    17   ar
     5    16    21    2
     6    17    18   ar
     7    17    23    1
     8    18    19   ar
     9    18    22    2
    10    19    20   ar
    11     6     7    1
    12     6    11    1
    13     7     8    1
    14     7     9    1
    15     8    13    1
    16     9    10    1
    17     9    12    1
    18    10    11    1
    19    10     5    1
    20    12    14    1
    21     5     4    1
    22     4     1    1
    23     1     2    2
    24     1     3    1
    25     1    24    1
    26    24    25    1
    27    25    26    2
    28    25    27    1
    29    25    28    1
    30    28    29    1
    31    29    30    1
    32    29    37    1
    33    30    31    1
    34    30    34    1
    35    31    32    1
    36    31    35    1
    37    32    33    1
    38    32    36    1
    39    33    41    1
    40    33    37    1
    41    41    42    1
    42    34    38    1
    43    35    39    1
    44    36    40    1
    45    42    43    1
@<TRIPOS>MOLECULE
GDU
 43 45 0 0 0
SMALL
GASTEIGER

@<TRIPOS>ATOM
      1 P          20.7624   70.2382   -2.3534 P.3     1  UNL1        0.2189
      2 O          21.9876   70.9165   -2.8312 O.2     1  UNL1       -0.5170
      3 O          20.4965   68.9219   -3.2421 O.3     1  UNL1       -0.4371
      4 O          20.9480   69.8167   -0.8124 O.3     1  UNL1       -0.3112
      5 C          21.9885   70.6386   -0.2811 C.3     1  UNL1        0.1811
      6 C          21.4022   73.5636    1.7259 C.3     1  UNL1        0.2383
      7 C          22.7247   73.8652    0.9755 C.3     1  UNL1        0.1895
      8 O          22.8661   75.2671    0.7346 O.3     1  UNL1       -0.3779
      9 C          22.5271   73.0926   -0.3546 C.3     1  UNL1        0.1713
     10 C          21.4474   72.0459   -0.0225 C.3     1  UNL1        0.1764
     11 O          21.1174   72.1943    1.3693 O.3     1  UNL1       -0.3308
     12 O          22.0771   73.9763   -1.3835 O.3     1  UNL1       -0.3794
     13 H          23.7048   75.3866    0.2676 H       1  UNL1        0.2106
     14 H          22.7685   74.6413   -1.5038 H       1  UNL1        0.2105
     15 N          21.5864   73.6924    3.1723 N.ar    1  UNL1       -0.2551
     16 C          21.2541   74.8411    3.7873 C.ar    1  UNL1        0.3323
     17 N          21.4102   74.9842    5.1166 N.ar    1  UNL1       -0.2743
     18 C          21.9141   73.9762    5.8544 C.ar    1  UNL1        0.2626
     19 C          22.2739   72.7624    5.2193 C.ar    1  UNL1        0.0795
     20 C          22.1030   72.6441    3.8854 C.ar    1  UNL1        0.0869
     21 O          20.7979   75.7590    3.1350 O.2     1  UNL1       -0.2464
     22 O          22.0602   74.1065    7.0570 O.2     1  UNL1       -0.2670
     23 H          21.1611   75.8188    5.5445 H       1  UNL1        0.1734
     24 O          19.5082   71.2386   -2.4902 O.3     1  UNL1       -0.2703
     25 P          18.2699   70.3635   -3.0294 P.3     1  UNL1        0.2208
     26 O          18.3157   69.0162   -2.4196 O.2     1  UNL1       -0.5170
     27 O          16.8875   71.0865   -2.6290 O.3     1  UNL1       -0.4371
     28 O          18.3611   70.2321   -4.6308 O.3     1  UNL1       -0.2858
     29 C          17.6099   71.3158   -5.1795 C.3     1  UNL1        0.2704
     30 C          17.1113   70.9349   -6.5743 C.3     1  UNL1        0.1967
     31 C          18.3158   70.6076   -7.4622 C.3     1  UNL1        0.1715
     32 C          19.2921   71.7884   -7.4185 C.3     1  UNL1        0.1694
     33 C          19.6271   72.1035   -5.9585 C.3     1  UNL1        0.1761
     34 O          16.2581   69.7926   -6.4823 O.3     1  UNL1       -0.3775
     35 O          17.8779   70.3931   -8.8056 O.3     1  UNL1       -0.3794
     36 O          18.6904   72.9290   -8.0325 O.3     1  UNL1       -0.3794
     37 O          18.4385   72.4731   -5.2609 O.3     1  UNL1       -0.3258
     38 H          15.5196   70.0414   -5.9100 H       1  UNL1        0.2106
     39 H          17.2590   69.6523   -8.7834 H       1  UNL1        0.2105
     40 H          18.4920   72.6833   -8.9455 H       1  UNL1        0.2105
     41 C          20.6284   73.2595   -5.9047 C.3     1  UNL1        0.1693
     42 O          19.9213   74.5008   -5.8913 O.3     1  UNL1       -0.3794
     43 H          20.5868   75.2017   -5.8565 H       1  UNL1        0.2105
@<TRIPOS>BOND
     1    15    16   ar
     2    15    20   ar
     3    15     6    1
     4    16    17   ar
     5    16    21    2
     6    17    18   ar
     7    17    23    1
     8    18    19   ar
     9    18    22    2
    10    19    20   ar
    11     6     7    1
    12     6    11    1
    13     7     8    1
    14     7     9    1
    15     8    13    1
    16     9    10    1
    17     9    12    1
    18    10    11    1
    19    10     5    1
    20    12    14    1
    21     5     4    1
    22     4     1    1
    23     1     2    2
    24     1     3    1
    25     1    24    1
    26    24    25    1
    27    25    26    2
    28    25    27    1
    29    25    28    1
    30    28    29    1
    31    29    30    1
    32    29    37    1
    33    30    31    1
    34    30    34    1
    35    31    32    1
    36    31    35    1
    37    32    33    1
    38    32    36    1
    39    33    41    1
    40    33    37    1
    41    41    42    1
    42    34    38    1
    43    35    39    1
    44    36    40    1
    45    42    43    1
@<TRIPOS>MOLECULE
GDU
 43 45 0 0 0
SMALL
GASTEIGER

@<TRIPOS>ATOM
      1 P          13.3811   72.8138   -2.3159 P.3     1  UNL1        0.2189
      2 O          13.3668   73.3289   -3.7030 O.2     1  UNL1       -0.5170
      3 O          13.7663   74.0063   -1.3046 O.3     1  UNL1       -0.4371
      4 O          11.9258   72.2410   -1.9406 O.3     1  UNL1       -0.3112
      5 C          12.0524   71.5845   -0.6783 C.3     1  UNL1        0.1811
      6 C          11.5881   68.2209    0.5041 C.3     1  UNL1        0.2383
      7 C          10.1546   68.8048    0.4189 C.3     1  UNL1        0.1895
      8 O           9.2036   67.7803    0.1201 O.3     1  UNL1       -0.3779
      9 C          10.2803   69.8039   -0.7606 C.3     1  UNL1        0.1713
     10 C          11.7913   70.0872   -0.8517 C.3     1  UNL1        0.1764
     11 O          12.4315   69.3539    0.2069 O.3     1  UNL1       -0.3308
     12 O           9.8017   69.2119   -1.9699 O.3     1  UNL1       -0.3794
     13 H           8.3365   68.2074    0.0816 H       1  UNL1        0.2106
     14 H           8.8680   69.0041   -1.8296 H       1  UNL1        0.2105
     15 N          11.8615   67.7132    1.8496 N.ar    1  UNL1       -0.2551
     16 C          11.9332   66.3870    2.0601 C.ar    1  UNL1        0.3323
     17 N          12.1868   65.8943    3.2868 N.ar    1  UNL1       -0.2743
     18 C          12.3639   66.7268    4.3307 C.ar    1  UNL1        0.2626
     19 C          12.2854   68.1260    4.1250 C.ar    1  UNL1        0.0795
     20 C          12.0341   68.5935    2.8837 C.ar    1  UNL1        0.0869
     21 O          11.7762   65.6236    1.1280 O.2     1  UNL1       -0.2464
     22 O          12.5888   66.2816    5.4423 O.2     1  UNL1       -0.2670
     23 H          12.2394   64.9344    3.4197 H       1  UNL1        0.1734
     24 O          14.4712   71.6351   -2.1934 O.3     1  UNL1       -0.2703
     25 P          15.8071   72.1573   -2.9231 P.3     1  UNL1        0.2208
     26 O          15.5965   72.1693   -4.3875 O.2     1  UNL1       -0.5170
     27 O          16.1463   73.6486   -2.4180 O.3     1  UNL1       -0.4371
     28 O          17.0334   71.1787   -2.5643 O.3     1  UNL1       -0.2858
     29 C          17.8717   71.1234   -3.7193 C.3     1  UNL1        0.2704
     30 C          17.9789   69.6760   -4.2018 C.3     1  UNL1        0.1967
     31 C          18.5554   68.8156   -3.0732 C.3     1  UNL1        0.1715
     32 C          19.8709   69.4446   -2.6006 C.3     1  UNL1        0.1694
     33 C          19.6196   70.9102   -2.2373 C.3     1  UNL1        0.1761
     34 O          16.6825   69.1934   -4.5591 O.3     1  UNL1       -0.3775
     35 O          18.7990   67.4923   -3.5549 O.3     1  UNL1       -0.3794
     36 O          20.8409   69.3660   -3.6460 O.3     1  UNL1       -0.3794
     37 O          19.1664   71.6206   -3.3888 O.3     1  UNL1       -0.3258
     38 H          16.3560   69.7673   -5.2654 H       1  UNL1        0.2106
     39 H          17.9497   67.1416   -3.8515 H       1  UNL1        0.2105
     40 H          20.9625   68.4285   -3.8451 H       1  UNL1        0.2105
     41 C          20.9200   71.5387   -1.7314 C.3     1  UNL1        0.1693
     42 O          21.7705   70.5164   -1.2095 O.3     1  UNL1       -0.3794
     43 H          22.5771   70.9530   -0.9027 H       1  UNL1        0.2105
@<TRIPOS>BOND
     1    15    16   ar
     2    15    20   ar
     3    15     6    1
     4    16    17   ar
     5    16    21    2
     6    17    18   ar
     7    17    23    1
     8    18    19   ar
     9    18    22    2
    10    19    20   ar
    11     6     7    1
    12     6    11    1
    13     7     8    1
    14     7     9    1
    15     8    13    1
    16     9    10    1
    17     9    12    1
    18    10    11    1
    19    10     5    1
    20    12    14    1
    21     5     4    1
    22     4     1    1
    23     1     2    2
    24     1     3    1
    25     1    24    1
    26    24    25    1
    27    25    26    2
    28    25    27    1
    29    25    28    1
    30    28    29    1
    31    29    30    1
    32    29    37    1
    33    30    31    1
    34    30    34    1
    35    31    32    1
    36    31    35    1
    37    32    33    1
    38    32    36    1
    39    33    41    1
    40    33    37    1
    41    41    42    1
    42    34    38    1
    43    35    39    1
    44    36    40    1
    45    42    43    1
@<TRIPOS>MOLECULE
GDU
 43 45 0 0 0
SMALL
GASTEIGER

@<TRIPOS>ATOM
      1 P          21.8925   71.7219   -2.6372 P.3     1  UNL1        0.2189
      2 O          21.8530   70.4231   -1.9294 O.2     1  UNL1       -0.5170
      3 O          20.4467   72.4252   -2.5492 O.3     1  UNL1       -0.4371
      4 O          22.9945   72.6730   -1.9531 O.3     1  UNL1       -0.3112
      5 C          22.3327   73.3878   -0.9082 C.3     1  UNL1        0.1811
      6 C          22.5915   73.2999    2.6769 C.3     1  UNL1        0.2383
      7 C          21.1573   72.7934    2.3777 C.3     1  UNL1        0.1895
      8 O          20.7285   71.8597    3.3716 O.3     1  UNL1       -0.3779
      9 C          21.3390   72.0953    1.0048 C.3     1  UNL1        0.1713
     10 C          22.6270   72.7186    0.4356 C.3     1  UNL1        0.1764
     11 O          23.0841   73.7013    1.3809 O.3     1  UNL1       -0.3308
     12 O          21.4918   70.6851    1.1778 O.3     1  UNL1       -0.3794
     13 H          19.8335   71.5849    3.1283 H       1  UNL1        0.2106
     14 H          20.6788   70.3638    1.5907 H       1  UNL1        0.2105
     15 N          22.5571   74.4418    3.5920 N.ar    1  UNL1       -0.2551
     16 C          22.5895   74.2333    4.9201 C.ar    1  UNL1        0.3323
     17 N          22.5626   75.2660    5.7830 N.ar    1  UNL1       -0.2743
     18 C          22.4925   76.5315    5.3271 C.ar    1  UNL1        0.2626
     19 C          22.4519   76.7660    3.9308 C.ar    1  UNL1        0.0795
     20 C          22.4844   75.7124    3.0875 C.ar    1  UNL1        0.0869
     21 O          22.6533   73.0974    5.3462 O.2     1  UNL1       -0.2464
     22 O          22.4633   77.4667    6.1076 O.2     1  UNL1       -0.2670
     23 H          22.5911   75.0973    6.7383 H       1  UNL1        0.1734
     24 O          22.2763   71.4788   -4.1819 O.3     1  UNL1       -0.2703
     25 P          21.7990   72.7846   -4.9924 P.3     1  UNL1        0.2208
     26 O          21.9660   73.9824   -4.1401 O.2     1  UNL1       -0.5170
     27 O          22.6912   72.9454   -6.3238 O.3     1  UNL1       -0.4371
     28 O          20.2505   72.6275   -5.4014 O.3     1  UNL1       -0.2858
     29 C          20.0826   71.2948   -5.8867 C.3     1  UNL1        0.2704
     30 C          19.6215   71.3379   -7.3444 C.3     1  UNL1        0.1967
     31 C          18.3034   72.1139   -7.4276 C.3     1  UNL1        0.1715
     32 C          17.3049   71.4904   -6.4459 C.3     1  UNL1        0.1694
     33 C          17.9415   71.4375   -5.0548 C.3     1  UNL1        0.1761
     34 O          20.6130   71.9889   -8.1409 O.3     1  UNL1       -0.3775
     35 O          17.7846   72.0377   -8.7571 O.3     1  UNL1       -0.3794
     36 O          16.9738   70.1692   -6.8756 O.3     1  UNL1       -0.3794
     37 O          19.1106   70.6202   -5.0913 O.3     1  UNL1       -0.3258
     38 H          21.4252   71.4716   -8.0530 H       1  UNL1        0.2106
     39 H          18.4482   72.4288   -9.3393 H       1  UNL1        0.2105
     40 H          16.5827   70.2507   -7.7552 H       1  UNL1        0.2105
     41 C          16.9398   70.8478   -4.0595 C.3     1  UNL1        0.1693
     42 O          16.8315   69.4392   -4.2718 O.3     1  UNL1       -0.3794
     43 H          16.1930   69.1070   -3.6259 H       1  UNL1        0.2105
@<TRIPOS>BOND
     1    15    16   ar
     2    15    20   ar
     3    15     6    1
     4    16    17   ar
     5    16    21    2
     6    17    18   ar
     7    17    23    1
     8    18    19   ar
     9    18    22    2
    10    19    20   ar
    11     6     7    1
    12     6    11    1
    13     7     8    1
    14     7     9    1
    15     8    13    1
    16     9    10    1
    17     9    12    1
    18    10    11    1
    19    10     5    1
    20    12    14    1
    21     5     4    1
    22     4     1    1
    23     1     2    2
    24     1     3    1
    25     1    24    1
    26    24    25    1
    27    25    26    2
    28    25    27    1
    29    25    28    1
    30    28    29    1
    31    29    30    1
    32    29    37    1
    33    30    31    1
    34    30    34    1
    35    31    32    1
    36    31    35    1
    37    32    33    1
    38    32    36    1
    39    33    41    1
    40    33    37    1
    41    41    42    1
    42    34    38    1
    43    35    39    1
    44    36    40    1
    45    42    43    1
@<TRIPOS>MOLECULE
GDU
 43 45 0 0 0
SMALL
GASTEIGER

@<TRIPOS>ATOM
      1 P          17.6461   72.1285   -2.5159 P.3     1  UNL1        0.2189
      2 O          17.6243   70.6504   -2.4491 O.2     1  UNL1       -0.5170
      3 O          16.2602   72.7121   -1.9402 O.3     1  UNL1       -0.4371
      4 O          18.8707   72.6878   -1.6359 O.3     1  UNL1       -0.3112
      5 C          20.0085   72.7425   -2.4979 C.3     1  UNL1        0.1811
      6 C          21.9416   71.9630    0.4318 C.3     1  UNL1        0.2383
      7 C          21.1584   70.6610    0.1246 C.3     1  UNL1        0.1895
      8 O          21.9007   69.5104    0.5350 O.3     1  UNL1       -0.3779
      9 C          21.0312   70.7151   -1.4201 C.3     1  UNL1        0.1713
     10 C          21.2355   72.2030   -1.7605 C.3     1  UNL1        0.1764
     11 O          21.4090   72.9089   -0.5196 O.3     1  UNL1       -0.3308
     12 O          22.0414   69.9115   -2.0330 O.3     1  UNL1       -0.3794
     13 H          21.3607   68.7379    0.3173 H       1  UNL1        0.2106
     14 H          21.8957   69.0033   -1.7353 H       1  UNL1        0.2105
     15 N          21.6859   72.4101    1.8020 N.ar    1  UNL1       -0.2551
     16 C          22.3108   71.8061    2.8282 C.ar    1  UNL1        0.3323
     17 N          22.0961   72.2003    4.0972 N.ar    1  UNL1       -0.2743
     18 C          21.2393   73.2055    4.3612 C.ar    1  UNL1        0.2626
     19 C          20.5695   73.8472    3.2908 C.ar    1  UNL1        0.0795
     20 C          20.8064   73.4348    2.0273 C.ar    1  UNL1        0.0869
     21 O          23.0869   70.8982    2.6055 O.2     1  UNL1       -0.2464
     22 O          21.0407   73.5598    5.5099 O.2     1  UNL1       -0.2670
     23 H          22.5590   71.7559    4.8252 H       1  UNL1        0.1734
     24 O          17.8276   72.5929   -4.0469 O.3     1  UNL1       -0.2703
     25 P          16.7126   71.8131   -4.9063 P.3     1  UNL1        0.2208
     26 O          16.6754   70.3930   -4.4928 O.2     1  UNL1       -0.5170
     27 O          15.2711   72.4842   -4.6497 O.3     1  UNL1       -0.4371
     28 O          17.0764   71.9079   -6.4712 O.3     1  UNL1       -0.2858
     29 C          18.3891   72.4636   -6.5591 C.3     1  UNL1        0.2704
     30 C          18.3078   73.8702   -7.1543 C.3     1  UNL1        0.1967
     31 C          17.6611   73.7884   -8.5405 C.3     1  UNL1        0.1715
     32 C          18.4346   72.7675   -9.3826 C.3     1  UNL1        0.1694
     33 C          18.5046   71.4429   -8.6186 C.3     1  UNL1        0.1761
     34 O          17.5183   74.7045   -6.3047 O.3     1  UNL1       -0.3775
     35 O          17.7114   75.0704   -9.1702 O.3     1  UNL1       -0.3794
     36 O          19.7551   73.2532   -9.6284 O.3     1  UNL1       -0.3794
     37 O          19.2001   71.6336   -7.3874 O.3     1  UNL1       -0.3258
     38 H          17.9577   74.7211   -5.4436 H       1  UNL1        0.2106
     39 H          17.2245   75.6805   -8.6020 H       1  UNL1        0.2105
     40 H          19.6619   74.0885  -10.1046 H       1  UNL1        0.2105
     41 C          19.2455   70.4060   -9.4658 C.3     1  UNL1        0.1693
     42 O          20.3153   69.8452   -8.7027 O.3     1  UNL1       -0.3794
     43 H          20.7550   69.1979   -9.2709 H       1  UNL1        0.2105
@<TRIPOS>BOND
     1    15    16   ar
     2    15    20   ar
     3    15     6    1
     4    16    17   ar
     5    16    21    2
     6    17    18   ar
     7    17    23    1
     8    18    19   ar
     9    18    22    2
    10    19    20   ar
    11     6     7    1
    12     6    11    1
    13     7     8    1
    14     7     9    1
    15     8    13    1
    16     9    10    1
    17     9    12    1
    18    10    11    1
    19    10     5    1
    20    12    14    1
    21     5     4    1
    22     4     1    1
    23     1     2    2
    24     1     3    1
    25     1    24    1
    26    24    25    1
    27    25    26    2
    28    25    27    1
    29    25    28    1
    30    28    29    1
    31    29    30    1
    32    29    37    1
    33    30    31    1
    34    30    34    1
    35    31    32    1
    36    31    35    1
    37    32    33    1
    38    32    36    1
    39    33    41    1
    40    33    37    1
    41    41    42    1
    42    34    38    1
    43    35    39    1
    44    36    40    1
    45    42    43    1
@<TRIPOS>MOLECULE
GDU
 43 45 0 0 0
SMALL
GASTEIGER

@<TRIPOS>ATOM
      1 P          22.6527   72.5069   -3.4255 P.3     1  UNL1        0.2189
      2 O          23.2627   71.6597   -2.3768 O.2     1  UNL1       -0.5170
      3 O          23.7913   72.9844   -4.4592 O.3     1  UNL1       -0.4371
      4 O          21.5325   71.6633   -4.2132 O.3     1  UNL1       -0.3112
      5 C          21.0986   70.6269   -3.3311 C.3     1  UNL1        0.1811
      6 C          17.7363   71.2947   -4.4157 C.3     1  UNL1        0.2383
      7 C          17.9358   69.7798   -4.6769 C.3     1  UNL1        0.1895
      8 O          16.7010   69.0723   -4.5431 O.3     1  UNL1       -0.3779
      9 C          18.9253   69.3834   -3.5504 C.3     1  UNL1        0.1713
     10 C          19.5829   70.7153   -3.1441 C.3     1  UNL1        0.1764
     11 O          19.0444   71.7396   -3.9979 O.3     1  UNL1       -0.3308
     12 O          18.2222   68.8079   -2.4475 O.3     1  UNL1       -0.3794
     13 H          16.8932   68.1404   -4.7175 H       1  UNL1        0.2106
     14 H          17.7848   68.0119   -2.7788 H       1  UNL1        0.2105
     15 N          17.3248   71.9818   -5.6409 N.ar    1  UNL1       -0.2551
     16 C          18.1448   71.9934   -6.7066 C.ar    1  UNL1        0.3323
     17 N          17.7890   72.6150   -7.8463 N.ar    1  UNL1       -0.2743
     18 C          16.6029   73.2472   -7.9343 C.ar    1  UNL1        0.2626
     19 C          15.7313   73.2481   -6.8178 C.ar    1  UNL1        0.0795
     20 C          16.1112   72.6135   -5.6884 C.ar    1  UNL1        0.0869
     21 O          19.2178   71.4270   -6.6424 O.2     1  UNL1       -0.2464
     22 O          16.2819   73.8141   -8.9639 O.2     1  UNL1       -0.2670
     23 H          18.3915   72.6096   -8.6070 H       1  UNL1        0.1734
     24 O          21.9735   73.7977   -2.7436 O.3     1  UNL1       -0.2703
     25 P          23.0950   74.4768   -1.8104 P.3     1  UNL1        0.2208
     26 O          24.4091   74.4042   -2.4864 O.2     1  UNL1       -0.5170
     27 O          22.7119   76.0190   -1.5473 O.3     1  UNL1       -0.4371
     28 O          23.1697   73.6964   -0.4049 O.3     1  UNL1       -0.2858
     29 C          21.8534   73.7126    0.1492 C.3     1  UNL1        0.2704
     30 C          21.9126   74.2300    1.5873 C.3     1  UNL1        0.1967
     31 C          22.8333   73.3204    2.4068 C.3     1  UNL1        0.1715
     32 C          22.3543   71.8724    2.2538 C.3     1  UNL1        0.1694
     33 C          22.2635   71.5331    0.7639 C.3     1  UNL1        0.1761
     34 O          22.4244   75.5639    1.5954 O.3     1  UNL1       -0.3775
     35 O          22.7839   73.7021    3.7832 O.3     1  UNL1       -0.3794
     36 O          21.0697   71.7273    2.8610 O.3     1  UNL1       -0.3794
     37 O          21.3160   72.3922    0.1315 O.3     1  UNL1       -0.3258
     38 H          21.8192   76.0981    1.0632 H       1  UNL1        0.2106
     39 H          23.0809   74.6196    3.8301 H       1  UNL1        0.2105
     40 H          21.1737   71.9560    3.7938 H       1  UNL1        0.2105
     41 C          21.8188   70.0779    0.6003 C.3     1  UNL1        0.1693
     42 O          22.9691   69.2418    0.4633 O.3     1  UNL1       -0.3794
     43 H          22.6462   68.3356    0.3636 H       1  UNL1        0.2105
@<TRIPOS>BOND
     1    15    16   ar
     2    15    20   ar
     3    15     6    1
     4    16    17   ar
     5    16    21    2
     6    17    18   ar
     7    17    23    1
     8    18    19   ar
     9    18    22    2
    10    19    20   ar
    11     6     7    1
    12     6    11    1
    13     7     8    1
    14     7     9    1
    15     8    13    1
    16     9    10    1
    17     9    12    1
    18    10    11    1
    19    10     5    1
    20    12    14    1
    21     5     4    1
    22     4     1    1
    23     1     2    2
    24     1     3    1
    25     1    24    1
    26    24    25    1
    27    25    26    2
    28    25    27    1
    29    25    28    1
    30    28    29    1
    31    29    30    1
    32    29    37    1
    33    30    31    1
    34    30    34    1
    35    31    32    1
    36    31    35    1
    37    32    33    1
    38    32    36    1
    39    33    41    1
    40    33    37    1
    41    41    42    1
    42    34    38    1
    43    35    39    1
    44    36    40    1
    45    42    43    1
@<TRIPOS>MOLECULE
GDU
 43 45 0 0 0
SMALL
GASTEIGER

@<TRIPOS>ATOM
      1 P          17.0976   70.9500   -4.1236 P.3     1  UNL1        0.2189
      2 O          16.8245   69.5402   -4.4807 O.2     1  UNL1       -0.5170
      3 O          16.7065   71.1984   -2.5815 O.3     1  UNL1       -0.4371
      4 O          18.6600   71.2655   -4.3386 O.3     1  UNL1       -0.3112
      5 C          19.1141   71.9300   -3.1584 C.3     1  UNL1        0.1811
      6 C          22.1614   71.9281   -1.2502 C.3     1  UNL1        0.2383
      7 C          21.4537   70.6069   -0.8545 C.3     1  UNL1        0.1895
      8 O          22.4088   69.5946   -0.5286 O.3     1  UNL1       -0.3779
      9 C          20.6876   70.2469   -2.1540 C.3     1  UNL1        0.1713
     10 C          20.5834   71.5845   -2.9099 C.3     1  UNL1        0.1764
     11 O          21.1897   72.5941   -2.0843 O.3     1  UNL1       -0.3308
     12 O          21.4226   69.2887   -2.9180 O.3     1  UNL1       -0.3794
     13 H          21.9061   68.8026   -0.2923 H       1  UNL1        0.2106
     14 H          21.5048   68.4968   -2.3696 H       1  UNL1        0.2105
     15 N          22.4595   72.7316   -0.0635 N.ar    1  UNL1       -0.2551
     16 C          21.9263   72.3915    1.1233 C.ar    1  UNL1        0.3323
     17 N          22.1873   73.1114    2.2304 N.ar    1  UNL1       -0.2743
     18 C          22.9835   74.1957    2.1643 C.ar    1  UNL1        0.2626
     19 C          23.5476   74.5692    0.9199 C.ar    1  UNL1        0.0795
     20 C          23.2728   73.8272   -0.1739 C.ar    1  UNL1        0.0869
     21 O          21.2066   71.4156    1.1985 O.2     1  UNL1       -0.2464
     22 O          23.2165   74.8507    3.1650 O.2     1  UNL1       -0.2670
     23 H          21.7974   72.8490    3.0794 H       1  UNL1        0.1734
     24 O          16.2189   71.9200   -5.0616 O.3     1  UNL1       -0.2703
     25 P          16.6726   71.6376   -6.5796 P.3     1  UNL1        0.2208
     26 O          18.1481   71.5507   -6.6452 O.2     1  UNL1       -0.5170
     27 O          16.0309   70.2482   -7.0816 O.3     1  UNL1       -0.4371
     28 O          16.1620   72.8357   -7.5251 O.3     1  UNL1       -0.2858
     29 C          17.3216   73.5562   -7.9446 C.3     1  UNL1        0.2704
     30 C          17.4497   74.8386   -7.1210 C.3     1  UNL1        0.1967
     31 C          16.1875   75.6845   -7.3157 C.3     1  UNL1        0.1715
     32 C          15.9646   75.8935   -8.8177 C.3     1  UNL1        0.1694
     33 C          15.9471   74.5298   -9.5128 C.3     1  UNL1        0.1761
     34 O          17.5971   74.5072   -5.7391 O.3     1  UNL1       -0.3775
     35 O          16.3533   76.9496   -6.6718 O.3     1  UNL1       -0.3794
     36 O          17.0210   76.6934   -9.3509 O.3     1  UNL1       -0.3794
     37 O          17.2035   73.8792   -9.3282 O.3     1  UNL1       -0.3258
     38 H          18.3978   73.9703   -5.6648 H       1  UNL1        0.2106
     39 H          16.5022   76.7694   -5.7350 H       1  UNL1        0.2105
     40 H          16.9974   77.5373   -8.8812 H       1  UNL1        0.2105
     41 C          15.6907   74.7251  -11.0089 C.3     1  UNL1        0.1693
     42 O          16.4720   75.8220  -11.4859 O.3     1  UNL1       -0.3794
     43 H          16.2825   75.9108  -12.4301 H       1  UNL1        0.2105
@<TRIPOS>BOND
     1    15    16   ar
     2    15    20   ar
     3    15     6    1
     4    16    17   ar
     5    16    21    2
     6    17    18   ar
     7    17    23    1
     8    18    19   ar
     9    18    22    2
    10    19    20   ar
    11     6     7    1
    12     6    11    1
    13     7     8    1
    14     7     9    1
    15     8    13    1
    16     9    10    1
    17     9    12    1
    18    10    11    1
    19    10     5    1
    20    12    14    1
    21     5     4    1
    22     4     1    1
    23     1     2    2
    24     1     3    1
    25     1    24    1
    26    24    25    1
    27    25    26    2
    28    25    27    1
    29    25    28    1
    30    28    29    1
    31    29    30    1
    32    29    37    1
    33    30    31    1
    34    30    34    1
    35    31    32    1
    36    31    35    1
    37    32    33    1
    38    32    36    1
    39    33    41    1
    40    33    37    1
    41    41    42    1
    42    34    38    1
    43    35    39    1
    44    36    40    1
    45    42    43    1
