@<TRIPOS>MOLECULE
UD2
 46 48 0 0 0
SMALL
GASTEIGER

@<TRIPOS>ATOM
      1 P          20.4001   70.7973   -3.5264 P.3     1  UNL1        0.2189
      2 O          20.6174   69.5706   -4.5459 O.3     1  UNL1       -0.4371
      3 O          20.2930   72.0604   -4.2893 O.2     1  UNL1       -0.5170
      4 O          19.0473   70.5622   -2.6848 O.3     1  UNL1       -0.3112
      5 C          18.0014   71.5325   -2.6078 C.3     1  UNL1        0.1811
      6 C          16.7210   70.5763   -5.8301 C.3     1  UNL1        0.2383
      7 C          16.9374   69.2356   -5.0832 C.3     1  UNL1        0.1895
      8 O          15.9911   68.2545   -5.5118 O.3     1  UNL1       -0.3779
      9 C          16.6852   69.6397   -3.6099 C.3     1  UNL1        0.1713
     10 C          16.8925   71.1662   -3.5974 C.3     1  UNL1        0.1764
     11 O          17.2743   71.5571   -4.9259 O.3     1  UNL1       -0.3308
     12 O          15.3490   69.3127   -3.2246 O.3     1  UNL1       -0.3794
     13 H          16.0862   67.3981   -5.0736 H       1  UNL1        0.2106
     14 H          15.1453   68.3689   -3.2710 H       1  UNL1        0.2105
     15 N          17.4458   70.5806   -7.1028 N.ar    1  UNL1       -0.2551
     16 C          16.7608   70.5509   -8.2598 C.ar    1  UNL1        0.3323
     17 N          17.4009   70.5538   -9.4441 N.ar    1  UNL1       -0.2743
     18 C          18.7483   70.5886   -9.4873 C.ar    1  UNL1        0.2626
     19 C          19.4819   70.6212   -8.2770 C.ar    1  UNL1        0.0795
     20 C          18.8141   70.6217   -7.1042 C.ar    1  UNL1        0.0869
     21 O          15.5456   70.5196   -8.2360 O.2     1  UNL1       -0.2464
     22 O          19.3288   70.5917  -10.5585 O.2     1  UNL1       -0.2670
     23 H          16.8917   70.5309  -10.2690 H       1  UNL1        0.1734
     24 O          21.6514   70.8843   -2.5164 O.3     1  UNL1       -0.2703
     25 P          23.0242   71.7259   -2.5073 P.3     1  UNL1        0.2208
     26 O          24.2315   70.7879   -3.0134 O.3     1  UNL1       -0.4371
     27 O          22.8946   72.8915   -3.4090 O.2     1  UNL1       -0.5170
     28 O          23.3310   72.2358   -1.0111 O.3     1  UNL1       -0.2865
     29 C          22.6387   71.7419    0.1369 C.3     1  UNL1        0.2611
     30 C          21.9342   72.9005    0.8468 C.3     1  UNL1        0.1582
     31 C          22.9843   73.9042    1.3331 C.3     1  UNL1        0.1625
     32 C          23.9797   73.1832    2.2461 C.3     1  UNL1        0.1686
     33 C          24.6055   72.0133    1.4820 C.3     1  UNL1        0.1760
     34 O          22.3412   74.9526    2.0613 O.3     1  UNL1       -0.3801
     35 O          23.2980   72.6900    3.4009 O.3     1  UNL1       -0.3794
     36 O          23.5731   71.1342    1.0313 O.3     1  UNL1       -0.3263
     37 H          22.9477   75.6259    2.3989 H       1  UNL1        0.2105
     38 H          23.8690   72.2201    4.0247 H       1  UNL1        0.2105
     39 C          19.8031   73.9643    0.3323 C.2     1  UNL1        0.2231
     40 C          18.8622   74.6452   -0.6265 C.3     1  UNL1        0.0946
     41 N          21.0194   73.5626   -0.0866 N.am    1  UNL1       -0.2994
     42 O          19.4664   73.7769    1.4829 O.2     1  UNL1       -0.2751
     43 H          21.2887   73.7113   -1.0066 H       1  UNL1        0.1496
     44 C          25.5571   71.2514    2.4064 C.3     1  UNL1        0.1693
     45 O          25.0775   69.9178    2.5906 O.3     1  UNL1       -0.3794
     46 H          25.6329   69.3756    3.1671 H       1  UNL1        0.2105
@<TRIPOS>BOND
     1    29    30    1
     2    30    41    1
     3    30    31    1
     4    31    34    1
     5    31    32    1
     6    32    35    1
     7    32    33    1
     8    33    36    1
     9    33    44    1
    10    39    40    1
    11    39    42    2
    12    39    41   am
    13    41    43    1
    14    29    28    1
    15    34    37    1
    16    35    38    1
    17    29    36    1
    18    44    45    1
    19    45    46    1
    20    15     6    1
    21    15    16   ar
    22    16    21    2
    23    16    17   ar
    24    17    23    1
    25    17    18   ar
    26    18    19   ar
    27    19    20   ar
    28    15    20   ar
    29    18    22    2
    30     6     7    1
    31     6    11    1
    32     7     9    1
    33     7     8    1
    34     8    13    1
    35     9    10    1
    36     9    12    1
    37    10     5    1
    38    10    11    1
    39    12    14    1
    40     5     4    1
    41     4     1    1
    42     1     2    1
    43     1    24    1
    44     1     3    2
    45    24    25    1
    46    28    25    1
    47    25    26    1
    48    25    27    2
@<TRIPOS>MOLECULE
UD2
 46 48 0 0 0
SMALL
GASTEIGER

@<TRIPOS>ATOM
      1 P          20.7859   70.9926   -3.3550 P.3     1  UNL1        0.2189
      2 O          21.1003   70.3574   -1.9097 O.3     1  UNL1       -0.4371
      3 O          20.6744   69.9096   -4.3568 O.2     1  UNL1       -0.5170
      4 O          19.3997   71.8101   -3.2918 O.3     1  UNL1       -0.3112
      5 C          18.2668   71.3623   -2.5453 C.3     1  UNL1        0.1811
      6 C          16.8743   70.5052   -5.7490 C.3     1  UNL1        0.2383
      7 C          17.1169   69.1422   -5.0522 C.3     1  UNL1        0.1895
      8 O          16.1563   68.1737   -5.4777 O.3     1  UNL1       -0.3779
      9 C          16.9166   69.4999   -3.5591 C.3     1  UNL1        0.1713
     10 C          17.1239   71.0256   -3.5063 C.3     1  UNL1        0.1764
     11 O          17.4588   71.4580   -4.8346 O.3     1  UNL1       -0.3308
     12 O          15.5947   69.1594   -3.1376 O.3     1  UNL1       -0.3794
     13 H          16.2669   67.3041   -5.0699 H       1  UNL1        0.2106
     14 H          15.3896   68.2172   -3.2062 H       1  UNL1        0.2105
     15 N          17.5540   70.5499   -7.0455 N.ar    1  UNL1       -0.2551
     16 C          16.8307   70.5122   -8.1787 C.ar    1  UNL1        0.3323
     17 N          17.4289   70.5516   -9.3841 N.ar    1  UNL1       -0.2743
     18 C          18.7721   70.6320   -9.4729 C.ar    1  UNL1        0.2626
     19 C          19.5458   70.6735   -8.2880 C.ar    1  UNL1        0.0795
     20 C          18.9194   70.6367   -7.0932 C.ar    1  UNL1        0.0869
     21 O          15.6187   70.4399   -8.1138 O.2     1  UNL1       -0.2464
     22 O          19.3147   70.6681  -10.5632 O.2     1  UNL1       -0.2670
     23 H          16.8925   70.5222  -10.1913 H       1  UNL1        0.1734
     24 O          21.9782   71.9908   -3.7737 O.3     1  UNL1       -0.2703
     25 P          23.4833   72.2171   -3.2479 P.3     1  UNL1        0.2208
     26 O          24.1779   70.7890   -2.9799 O.3     1  UNL1       -0.4371
     27 O          24.2567   72.9573   -4.2687 O.2     1  UNL1       -0.5170
     28 O          23.4517   73.0643   -1.8790 O.3     1  UNL1       -0.2865
     29 C          22.2427   73.5447   -1.2885 C.3     1  UNL1        0.2611
     30 C          22.4875   74.9244   -0.6727 C.3     1  UNL1        0.1582
     31 C          23.5313   74.7988    0.4413 C.3     1  UNL1        0.1625
     32 C          23.0398   73.7810    1.4743 C.3     1  UNL1        0.1686
     33 C          22.7736   72.4451    0.7755 C.3     1  UNL1        0.1760
     34 O          23.7122   76.0692    1.0712 O.3     1  UNL1       -0.3801
     35 O          21.8333   74.2550    2.0752 O.3     1  UNL1       -0.3794
     36 O          21.8178   72.6378   -0.2691 O.3     1  UNL1       -0.3263
     37 H          24.3617   76.0635    1.7876 H       1  UNL1        0.2105
     38 H          21.4639   73.6582    2.7411 H       1  UNL1        0.2105
     39 C          24.3055   75.9711   -1.9125 C.2     1  UNL1        0.2231
     40 C          24.8131   76.9123   -2.9732 C.3     1  UNL1        0.0946
     41 N          22.9805   75.8403   -1.7046 N.am    1  UNL1       -0.2994
     42 O          25.0897   75.3301   -1.2444 O.2     1  UNL1       -0.2751
     43 H          22.3532   76.3533   -2.2378 H       1  UNL1        0.1496
     44 C          22.2254   71.4396    1.7898 C.3     1  UNL1        0.1693
     45 O          21.5895   70.3627    1.0982 O.3     1  UNL1       -0.3794
     46 H          21.2176   69.6859    1.6801 H       1  UNL1        0.2105
@<TRIPOS>BOND
     1    29    30    1
     2    30    41    1
     3    30    31    1
     4    31    34    1
     5    31    32    1
     6    32    35    1
     7    32    33    1
     8    33    36    1
     9    33    44    1
    10    39    40    1
    11    39    42    2
    12    39    41   am
    13    41    43    1
    14    29    28    1
    15    34    37    1
    16    35    38    1
    17    29    36    1
    18    44    45    1
    19    45    46    1
    20    15     6    1
    21    15    16   ar
    22    16    21    2
    23    16    17   ar
    24    17    23    1
    25    17    18   ar
    26    18    19   ar
    27    19    20   ar
    28    15    20   ar
    29    18    22    2
    30     6     7    1
    31     6    11    1
    32     7     9    1
    33     7     8    1
    34     8    13    1
    35     9    10    1
    36     9    12    1
    37    10     5    1
    38    10    11    1
    39    12    14    1
    40     5     4    1
    41     4     1    1
    42     1     2    1
    43     1    24    1
    44     1     3    2
    45    24    25    1
    46    28    25    1
    47    25    26    1
    48    25    27    2
@<TRIPOS>MOLECULE
UD2
 46 48 0 0 0
SMALL
GASTEIGER

@<TRIPOS>ATOM
      1 P          20.9991   70.9590   -3.3827 P.3     1  UNL1        0.2189
      2 O          20.7796   69.4706   -3.9552 O.3     1  UNL1       -0.4371
      3 O          21.4821   71.8398   -4.4690 O.2     1  UNL1       -0.5170
      4 O          19.6036   71.5258   -2.8126 O.3     1  UNL1       -0.3112
      5 C          18.5674   70.6790   -2.3118 C.3     1  UNL1        0.1811
      6 C          16.9838   70.5443   -5.5384 C.3     1  UNL1        0.2383
      7 C          16.9170   69.0886   -5.0104 C.3     1  UNL1        0.1895
      8 O          15.7569   68.4185   -5.5073 O.3     1  UNL1       -0.3779
      9 C          16.8186   69.3019   -3.4799 C.3     1  UNL1        0.1713
     10 C          17.3682   70.7246   -3.2619 C.3     1  UNL1        0.1764
     11 O          17.7791   71.2256   -4.5440 O.3     1  UNL1       -0.3308
     12 O          15.4584   69.2196   -3.0512 O.3     1  UNL1       -0.3794
     13 H          15.6710   67.5042   -5.2053 H       1  UNL1        0.2106
     14 H          15.0436   68.3627   -3.2187 H       1  UNL1        0.2105
     15 N          17.6425   70.5891   -6.8457 N.ar    1  UNL1       -0.2551
     16 C          16.9042   70.5095   -7.9670 C.ar    1  UNL1        0.3323
     17 N          17.4830   70.5479   -9.1818 N.ar    1  UNL1       -0.2743
     18 C          18.8215   70.6695   -9.2924 C.ar    1  UNL1        0.2626
     19 C          19.6108   70.7553   -8.1203 C.ar    1  UNL1        0.0795
     20 C          19.0036   70.7185   -6.9156 C.ar    1  UNL1        0.0869
     21 O          15.6962   70.3998   -7.8824 O.2     1  UNL1       -0.2464
     22 O          19.3465   70.7048  -10.3913 O.2     1  UNL1       -0.2670
     23 H          16.9359   70.4880   -9.9801 H       1  UNL1        0.1734
     24 O          22.0876   70.9230   -2.1965 O.3     1  UNL1       -0.2703
     25 P          22.0463   71.2928   -0.6298 P.3     1  UNL1        0.2208
     26 O          20.8229   70.5156    0.0724 O.3     1  UNL1       -0.4371
     27 O          23.3183   70.8867    0.0069 O.2     1  UNL1       -0.5170
     28 O          21.8428   72.8809   -0.4585 O.3     1  UNL1       -0.2865
     29 C          22.9230   73.7814   -0.2066 C.3     1  UNL1        0.2611
     30 C          22.3686   75.1827    0.0610 C.3     1  UNL1        0.1582
     31 C          21.6317   75.6778   -1.1873 C.3     1  UNL1        0.1625
     32 C          22.5933   75.6518   -2.3786 C.3     1  UNL1        0.1686
     33 C          23.1391   74.2320   -2.5522 C.3     1  UNL1        0.1760
     34 O          21.1738   77.0147   -0.9723 O.3     1  UNL1       -0.3801
     35 O          23.6750   76.5539   -2.1391 O.3     1  UNL1       -0.3794
     36 O          23.7852   73.8209   -1.3457 O.3     1  UNL1       -0.3263
     37 H          20.6965   77.3923   -1.7239 H       1  UNL1        0.2105
     38 H          24.3251   76.5883   -2.8547 H       1  UNL1        0.2105
     39 C          20.1234   74.9317    0.9740 C.2     1  UNL1        0.2231
     40 C          19.1661   74.8802    2.1357 C.3     1  UNL1        0.0946
     41 N          21.4380   75.1330    1.1915 N.am    1  UNL1       -0.2994
     42 O          19.7112   74.7918   -0.1585 O.2     1  UNL1       -0.2751
     43 H          21.7679   75.2458    2.0968 H       1  UNL1        0.1496
     44 C          24.1465   74.2104   -3.7034 C.3     1  UNL1        0.1693
     45 O          24.4222   72.8571   -4.0708 O.3     1  UNL1       -0.3794
     46 H          25.0548   72.7671   -4.7966 H       1  UNL1        0.2105
@<TRIPOS>BOND
     1    29    30    1
     2    30    41    1
     3    30    31    1
     4    31    34    1
     5    31    32    1
     6    32    35    1
     7    32    33    1
     8    33    36    1
     9    33    44    1
    10    39    40    1
    11    39    42    2
    12    39    41   am
    13    41    43    1
    14    29    28    1
    15    34    37    1
    16    35    38    1
    17    29    36    1
    18    44    45    1
    19    45    46    1
    20    15     6    1
    21    15    16   ar
    22    16    21    2
    23    16    17   ar
    24    17    23    1
    25    17    18   ar
    26    18    19   ar
    27    19    20   ar
    28    15    20   ar
    29    18    22    2
    30     6     7    1
    31     6    11    1
    32     7     9    1
    33     7     8    1
    34     8    13    1
    35     9    10    1
    36     9    12    1
    37    10     5    1
    38    10    11    1
    39    12    14    1
    40     5     4    1
    41     4     1    1
    42     1     2    1
    43     1    24    1
    44     1     3    2
    45    24    25    1
    46    28    25    1
    47    25    26    1
    48    25    27    2
@<TRIPOS>MOLECULE
UD2
 46 48 0 0 0
SMALL
GASTEIGER

@<TRIPOS>ATOM
      1 P          19.5826   72.4115   -1.7466 P.3     1  UNL1        0.2189
      2 O          19.8290   73.9215   -1.2460 O.3     1  UNL1       -0.4371
      3 O          18.1293   72.1384   -1.7960 O.2     1  UNL1       -0.5170
      4 O          20.2143   72.2235   -3.2160 O.3     1  UNL1       -0.3112
      5 C          21.5784   71.8589   -3.4347 C.3     1  UNL1        0.1811
      6 C          20.4157   71.0361   -6.7373 C.3     1  UNL1        0.2383
      7 C          20.8854   72.5091   -6.8453 C.3     1  UNL1        0.1895
      8 O          21.3743   72.7937   -8.1574 O.3     1  UNL1       -0.3779
      9 C          22.0312   72.5622   -5.8052 C.3     1  UNL1        0.1713
     10 C          21.7502   71.3675   -4.8741 C.3     1  UNL1        0.1764
     11 O          20.5359   70.7482   -5.3273 O.3     1  UNL1       -0.3308
     12 O          23.2970   72.4081   -6.4493 O.3     1  UNL1       -0.3794
     13 H          21.6795   73.7035   -8.2750 H       1  UNL1        0.2106
     14 H          23.4998   73.1020   -7.0910 H       1  UNL1        0.2105
     15 N          19.0239   70.9051   -7.1742 N.ar    1  UNL1       -0.2551
     16 C          18.7533   70.6164   -8.4596 C.ar    1  UNL1        0.3323
     17 N          17.4837   70.4904   -8.8889 N.ar    1  UNL1       -0.2743
     18 C          16.4573   70.6513   -8.0291 C.ar    1  UNL1        0.2626
     19 C          16.7277   70.9545   -6.6729 C.ar    1  UNL1        0.0795
     20 C          18.0103   71.0709   -6.2692 C.ar    1  UNL1        0.0869
     21 O          19.6688   70.4683   -9.2459 O.2     1  UNL1       -0.2464
     22 O          15.3078   70.5371   -8.4163 O.2     1  UNL1       -0.2670
     23 H          17.3062   70.2831   -9.8193 H       1  UNL1        0.1734
     24 O          20.2874   71.3854   -0.7249 O.3     1  UNL1       -0.2703
     25 P          21.4370   71.5335    0.3928 P.3     1  UNL1        0.2208
     26 O          21.7032   70.1020    1.0811 O.3     1  UNL1       -0.4371
     27 O          22.6836   72.0144   -0.2420 O.2     1  UNL1       -0.5170
     28 O          20.9632   72.5884    1.5133 O.3     1  UNL1       -0.2865
     29 C          21.7545   73.7095    1.9111 C.3     1  UNL1        0.2611
     30 C          22.5740   73.3427    3.1506 C.3     1  UNL1        0.1582
     31 C          21.6206   73.0139    4.3036 C.3     1  UNL1        0.1625
     32 C          20.7014   74.2135    4.5495 C.3     1  UNL1        0.1686
     33 C          19.9538   74.5467    3.2557 C.3     1  UNL1        0.1760
     34 O          22.3770   72.7416    5.4855 O.3     1  UNL1       -0.3801
     35 O          21.4828   75.3392    4.9537 O.3     1  UNL1       -0.3794
     36 O          20.8981   74.8121    2.2166 O.3     1  UNL1       -0.3263
     37 H          21.8359   72.5244    6.2569 H       1  UNL1        0.2105
     38 H          20.9641   76.1373    5.1263 H       1  UNL1        0.2105
     39 C          24.7297   72.3285    2.6388 C.2     1  UNL1        0.2231
     40 C          25.5887   71.1284    2.3375 C.3     1  UNL1        0.0946
     41 N          23.4088   72.1750    2.8574 N.am    1  UNL1       -0.2994
     42 O          25.2269   73.4343    2.6848 O.2     1  UNL1       -0.2751
     43 H          23.0108   71.2912    2.8197 H       1  UNL1        0.1496
     44 C          19.0777   75.7813    3.4766 C.3     1  UNL1        0.1693
     45 O          18.6187   75.8046    4.8298 O.3     1  UNL1       -0.3794
     46 H          18.0562   76.5619    5.0419 H       1  UNL1        0.2105
@<TRIPOS>BOND
     1    29    30    1
     2    30    41    1
     3    30    31    1
     4    31    34    1
     5    31    32    1
     6    32    35    1
     7    32    33    1
     8    33    36    1
     9    33    44    1
    10    39    40    1
    11    39    42    2
    12    39    41   am
    13    41    43    1
    14    29    28    1
    15    34    37    1
    16    35    38    1
    17    29    36    1
    18    44    45    1
    19    45    46    1
    20    15     6    1
    21    15    16   ar
    22    16    21    2
    23    16    17   ar
    24    17    23    1
    25    17    18   ar
    26    18    19   ar
    27    19    20   ar
    28    15    20   ar
    29    18    22    2
    30     6     7    1
    31     6    11    1
    32     7     9    1
    33     7     8    1
    34     8    13    1
    35     9    10    1
    36     9    12    1
    37    10     5    1
    38    10    11    1
    39    12    14    1
    40     5     4    1
    41     4     1    1
    42     1     2    1
    43     1    24    1
    44     1     3    2
    45    24    25    1
    46    28    25    1
    47    25    26    1
    48    25    27    2
@<TRIPOS>MOLECULE
UD2
 46 48 0 0 0
SMALL
GASTEIGER

@<TRIPOS>ATOM
      1 P          20.2628   71.8446   -0.7804 P.3     1  UNL1        0.2189
      2 O          21.0811   72.5019   -2.0010 O.3     1  UNL1       -0.4371
      3 O          19.5286   72.9022   -0.0516 O.2     1  UNL1       -0.5170
      4 O          19.2165   70.7641   -1.3562 O.3     1  UNL1       -0.3112
      5 C          19.3372   70.1811   -2.6551 C.3     1  UNL1        0.1811
      6 C          17.4204   70.4551   -5.6861 C.3     1  UNL1        0.2383
      7 C          17.1571   69.0114   -5.1878 C.3     1  UNL1        0.1895
      8 O          15.8518   68.5710   -5.5670 O.3     1  UNL1       -0.3779
      9 C          17.2607   69.1736   -3.6514 C.3     1  UNL1        0.1713
     10 C          18.0702   70.4710   -3.4635 C.3     1  UNL1        0.1764
     11 O          18.4235   70.9480   -4.7716 O.3     1  UNL1       -0.3308
     12 O          15.9604   69.3070   -3.0751 O.3     1  UNL1       -0.3794
     13 H          15.6401   67.6729   -5.2784 H       1  UNL1        0.2106
     14 H          15.3870   68.5414   -3.2148 H       1  UNL1        0.2105
     15 N          17.9340   70.4418   -7.0576 N.ar    1  UNL1       -0.2551
     16 C          17.0740   70.4588   -8.0915 C.ar    1  UNL1        0.3323
     17 N          17.5180   70.4470   -9.3623 N.ar    1  UNL1       -0.2743
     18 C          18.8417   70.4194   -9.6185 C.ar    1  UNL1        0.2626
     19 C          19.7583   70.4023   -8.5398 C.ar    1  UNL1        0.0795
     20 C          19.2853   70.4191   -7.2759 C.ar    1  UNL1        0.0869
     21 O          15.8777   70.4839   -7.8754 O.2     1  UNL1       -0.2464
     22 O          19.2449   70.4091  -10.7682 O.2     1  UNL1       -0.2670
     23 H          16.8843   70.4583  -10.0960 H       1  UNL1        0.1734
     24 O          21.2894   71.1146    0.2229 O.3     1  UNL1       -0.2703
     25 P          22.7500   71.4840    0.7915 P.3     1  UNL1        0.2208
     26 O          23.5330   70.1307    1.1777 O.3     1  UNL1       -0.4371
     27 O          23.5121   72.2158   -0.2439 O.2     1  UNL1       -0.5170
     28 O          22.5979   72.4089    2.1007 O.3     1  UNL1       -0.2865
     29 C          22.9399   73.7960    2.1179 C.3     1  UNL1        0.2611
     30 C          23.7812   74.0997    3.3599 C.3     1  UNL1        0.1582
     31 C          22.9492   73.8102    4.6130 C.3     1  UNL1        0.1625
     32 C          21.6652   74.6430    4.5638 C.3     1  UNL1        0.1686
     33 C          20.9052   74.3181    3.2751 C.3     1  UNL1        0.1760
     34 O          23.7015   74.1607    5.7768 O.3     1  UNL1       -0.3801
     35 O          21.9961   76.0327    4.5864 O.3     1  UNL1       -0.3794
     36 O          21.7456   74.5802    2.1495 O.3     1  UNL1       -0.3263
     37 H          23.2347   74.0024    6.6088 H       1  UNL1        0.2105
     38 H          21.2286   76.6210    4.5568 H       1  UNL1        0.2105
     39 C          26.1982   73.8118    3.2459 C.2     1  UNL1        0.2231
     40 C          27.4281   72.9423    3.2460 C.3     1  UNL1        0.0946
     41 N          24.9771   73.2533    3.3598 N.am    1  UNL1       -0.2994
     42 O          26.3064   75.0159    3.1433 O.2     1  UNL1       -0.2751
     43 H          24.8900   72.2905    3.4409 H       1  UNL1        0.1496
     44 C          19.6509   75.1898    3.1895 C.3     1  UNL1        0.1693
     45 O          18.7613   74.6508    2.2095 O.3     1  UNL1       -0.3794
     46 H          17.9427   75.1541    2.1014 H       1  UNL1        0.2105
@<TRIPOS>BOND
     1    29    30    1
     2    30    41    1
     3    30    31    1
     4    31    34    1
     5    31    32    1
     6    32    35    1
     7    32    33    1
     8    33    36    1
     9    33    44    1
    10    39    40    1
    11    39    42    2
    12    39    41   am
    13    41    43    1
    14    29    28    1
    15    34    37    1
    16    35    38    1
    17    29    36    1
    18    44    45    1
    19    45    46    1
    20    15     6    1
    21    15    16   ar
    22    16    21    2
    23    16    17   ar
    24    17    23    1
    25    17    18   ar
    26    18    19   ar
    27    19    20   ar
    28    15    20   ar
    29    18    22    2
    30     6     7    1
    31     6    11    1
    32     7     9    1
    33     7     8    1
    34     8    13    1
    35     9    10    1
    36     9    12    1
    37    10     5    1
    38    10    11    1
    39    12    14    1
    40     5     4    1
    41     4     1    1
    42     1     2    1
    43     1    24    1
    44     1     3    2
    45    24    25    1
    46    28    25    1
    47    25    26    1
    48    25    27    2
@<TRIPOS>MOLECULE
UD2
 46 48 0 0 0
SMALL
GASTEIGER

@<TRIPOS>ATOM
      1 P          21.7841   72.4489   -6.0329 P.3     1  UNL1        0.2189
      2 O          22.9426   73.2612   -6.8006 O.3     1  UNL1       -0.4371
      3 O          20.6347   73.3462   -5.7824 O.2     1  UNL1       -0.5170
      4 O          21.3076   71.2071   -6.9410 O.3     1  UNL1       -0.3112
      5 C          20.5561   71.3683   -8.1454 C.3     1  UNL1        0.1811
      6 C          17.3850   70.2042   -6.9102 C.3     1  UNL1        0.2383
      7 C          17.0223   71.1621   -8.0733 C.3     1  UNL1        0.1895
      8 O          15.8102   70.7543   -8.7108 O.3     1  UNL1       -0.3779
      9 C          18.2316   70.9908   -9.0250 C.3     1  UNL1        0.1713
     10 C          19.3462   70.4311   -8.1205 C.3     1  UNL1        0.1764
     11 O          18.8163   70.3523   -6.7876 O.3     1  UNL1       -0.3308
     12 O          17.9195   70.0641  -10.0665 O.3     1  UNL1       -0.3794
     13 H          15.5410   71.3229   -9.4449 H       1  UNL1        0.2106
     14 H          17.1847   70.3389  -10.6313 H       1  UNL1        0.2105
     15 N          16.7156   70.6166   -5.6745 N.ar    1  UNL1       -0.2551
     16 C          16.4513   69.7035   -4.7231 C.ar    1  UNL1        0.3323
     17 N          15.8371   70.0543   -3.5777 N.ar    1  UNL1       -0.2743
     18 C          15.4770   71.3365   -3.3658 C.ar    1  UNL1        0.2626
     19 C          15.7500   72.3083   -4.3584 C.ar    1  UNL1        0.0795
     20 C          16.3707   71.9293   -5.4953 C.ar    1  UNL1        0.0869
     21 O          16.7705   68.5438   -4.9005 O.2     1  UNL1       -0.2464
     22 O          14.9213   71.6554   -2.3295 O.2     1  UNL1       -0.2670
     23 H          15.6529   69.3831   -2.9026 H       1  UNL1        0.1734
     24 O          22.3526   71.8999   -4.6298 O.3     1  UNL1       -0.2703
     25 P          23.3757   72.4847   -3.5325 P.3     1  UNL1        0.2208
     26 O          23.6882   71.3506   -2.4326 O.3     1  UNL1       -0.4371
     27 O          24.6348   72.8872   -4.1966 O.2     1  UNL1       -0.5170
     28 O          22.7156   73.7645   -2.8118 O.3     1  UNL1       -0.2865
     29 C          21.7637   73.6561   -1.7519 C.3     1  UNL1        0.2611
     30 C          22.4119   72.9621   -0.5515 C.3     1  UNL1        0.1582
     31 C          22.8232   71.5426   -0.9542 C.3     1  UNL1        0.1625
     32 C          21.5906   70.7905   -1.4635 C.3     1  UNL1        0.1686
     33 C          20.9739   71.5684   -2.6291 C.3     1  UNL1        0.1760
     34 O          23.3627   70.8619    0.1811 O.3     1  UNL1       -0.3801
     35 O          20.6341   70.6716   -0.4088 O.3     1  UNL1       -0.3794
     36 O          20.6425   72.8892   -2.1959 O.3     1  UNL1       -0.3263
     37 H          23.6454   69.9554   -0.0021 H       1  UNL1        0.2105
     38 H          19.8251   70.2050   -0.6614 H       1  UNL1        0.2105
     39 C          23.8671   73.8712    1.1786 C.2     1  UNL1        0.2231
     40 C          25.0852   74.6448    1.6105 C.3     1  UNL1        0.0946
     41 N          23.5968   73.7149   -0.1323 N.am    1  UNL1       -0.2994
     42 O          23.1284   73.3882    2.0112 O.2     1  UNL1       -0.2751
     43 H          24.1866   74.1018   -0.7983 H       1  UNL1        0.1496
     44 C          19.7073   70.8545   -3.1050 C.3     1  UNL1        0.1693
     45 O          18.5788   71.3540   -2.3844 O.3     1  UNL1       -0.3794
     46 H          17.7391   70.9451   -2.6348 H       1  UNL1        0.2105
@<TRIPOS>BOND
     1    29    30    1
     2    30    41    1
     3    30    31    1
     4    31    34    1
     5    31    32    1
     6    32    35    1
     7    32    33    1
     8    33    36    1
     9    33    44    1
    10    39    40    1
    11    39    42    2
    12    39    41   am
    13    41    43    1
    14    29    28    1
    15    34    37    1
    16    35    38    1
    17    29    36    1
    18    44    45    1
    19    45    46    1
    20    15     6    1
    21    15    16   ar
    22    16    21    2
    23    16    17   ar
    24    17    23    1
    25    17    18   ar
    26    18    19   ar
    27    19    20   ar
    28    15    20   ar
    29    18    22    2
    30     6     7    1
    31     6    11    1
    32     7     9    1
    33     7     8    1
    34     8    13    1
    35     9    10    1
    36     9    12    1
    37    10     5    1
    38    10    11    1
    39    12    14    1
    40     5     4    1
    41     4     1    1
    42     1     2    1
    43     1    24    1
    44     1     3    2
    45    24    25    1
    46    28    25    1
    47    25    26    1
    48    25    27    2
@<TRIPOS>MOLECULE
UD2
 46 48 0 0 0
SMALL
GASTEIGER

@<TRIPOS>ATOM
      1 P          21.2420   71.3456   -2.6661 P.3     1  UNL1        0.2189
      2 O          21.6235   70.2090   -3.7402 O.3     1  UNL1       -0.4371
      3 O          21.8017   72.6442   -3.1012 O.2     1  UNL1       -0.5170
      4 O          19.6396   71.4622   -2.5545 O.3     1  UNL1       -0.3112
      5 C          18.7846   70.3244   -2.4278 C.3     1  UNL1        0.1811
      6 C          17.0851   70.4481   -5.5953 C.3     1  UNL1        0.2383
      7 C          16.9197   68.9818   -5.1213 C.3     1  UNL1        0.1895
      8 O          15.6931   68.4263   -5.5995 O.3     1  UNL1       -0.3779
      9 C          16.8915   69.1390   -3.5812 C.3     1  UNL1        0.1713
     10 C          17.5609   70.5036   -3.3297 C.3     1  UNL1        0.1764
     11 O          17.9664   71.0230   -4.6062 O.3     1  UNL1       -0.3308
     12 O          15.5447   69.1467   -3.1051 O.3     1  UNL1       -0.3794
     13 H          15.5444   67.5100   -5.3297 H       1  UNL1        0.2106
     14 H          15.0568   68.3328   -3.2895 H       1  UNL1        0.2105
     15 N          17.6998   70.4945   -6.9238 N.ar    1  UNL1       -0.2551
     16 C          16.9213   70.4598   -8.0200 C.ar    1  UNL1        0.3323
     17 N          17.4592   70.5009   -9.2533 N.ar    1  UNL1       -0.2743
     18 C          18.7965   70.5798   -9.4083 C.ar    1  UNL1        0.2626
     19 C          19.6279   70.6181   -8.2631 C.ar    1  UNL1        0.0795
     20 C          19.0613   70.5798   -7.0388 C.ar    1  UNL1        0.0869
     21 O          15.7139   70.3889   -7.8953 O.2     1  UNL1       -0.2464
     22 O          19.2845   70.6174  -10.5241 O.2     1  UNL1       -0.2670
     23 H          16.8834   70.4737  -10.0330 H       1  UNL1        0.1734
     24 O          21.8522   70.9524   -1.2286 O.3     1  UNL1       -0.2703
     25 P          21.5405   71.4140    0.2823 P.3     1  UNL1        0.2208
     26 O          20.1329   72.1955    0.3246 O.3     1  UNL1       -0.4371
     27 O          21.4695   70.2234    1.1574 O.2     1  UNL1       -0.5170
     28 O          22.7126   72.3904    0.7977 O.3     1  UNL1       -0.2865
     29 C          22.5006   73.7716    1.0953 C.3     1  UNL1        0.2611
     30 C          23.8341   74.5198    1.0270 C.3     1  UNL1        0.1582
     31 C          24.7815   73.9551    2.0900 C.3     1  UNL1        0.1625
     32 C          24.1184   74.0749    3.4649 C.3     1  UNL1        0.1686
     33 C          22.7735   73.3436    3.4391 C.3     1  UNL1        0.1760
     34 O          26.0033   74.6969    2.0828 O.3     1  UNL1       -0.3801
     35 O          23.9071   75.4535    3.7748 O.3     1  UNL1       -0.3794
     36 O          21.9521   73.8967    2.4090 O.3     1  UNL1       -0.3263
     37 H          26.6517   74.3923    2.7324 H       1  UNL1        0.2105
     38 H          23.4884   75.6046    4.6338 H       1  UNL1        0.2105
     39 C          24.1937   75.2502   -1.2697 C.2     1  UNL1        0.2231
     40 C          24.8031   75.0692   -2.6351 C.3     1  UNL1        0.0946
     41 N          24.4270   74.3428   -0.3010 N.am    1  UNL1       -0.2994
     42 O          23.4921   76.2134   -1.0412 O.2     1  UNL1       -0.2751
     43 H          24.9870   73.5721   -0.4836 H       1  UNL1        0.1496
     44 C          22.0772   73.5093    4.7912 C.3     1  UNL1        0.1693
     45 O          22.4926   72.4641    5.6730 O.3     1  UNL1       -0.3794
     46 H          22.0897   72.5062    6.5510 H       1  UNL1        0.2105
@<TRIPOS>BOND
     1    29    30    1
     2    30    41    1
     3    30    31    1
     4    31    34    1
     5    31    32    1
     6    32    35    1
     7    32    33    1
     8    33    36    1
     9    33    44    1
    10    39    40    1
    11    39    42    2
    12    39    41   am
    13    41    43    1
    14    29    28    1
    15    34    37    1
    16    35    38    1
    17    29    36    1
    18    44    45    1
    19    45    46    1
    20    15     6    1
    21    15    16   ar
    22    16    21    2
    23    16    17   ar
    24    17    23    1
    25    17    18   ar
    26    18    19   ar
    27    19    20   ar
    28    15    20   ar
    29    18    22    2
    30     6     7    1
    31     6    11    1
    32     7     9    1
    33     7     8    1
    34     8    13    1
    35     9    10    1
    36     9    12    1
    37    10     5    1
    38    10    11    1
    39    12    14    1
    40     5     4    1
    41     4     1    1
    42     1     2    1
    43     1    24    1
    44     1     3    2
    45    24    25    1
    46    28    25    1
    47    25    26    1
    48    25    27    2
@<TRIPOS>MOLECULE
UD2
 46 48 0 0 0
SMALL
GASTEIGER

@<TRIPOS>ATOM
      1 P          23.4657   72.3468   -3.2556 P.3     1  UNL1        0.2189
      2 O          24.1684   73.0589   -4.5168 O.3     1  UNL1       -0.4371
      3 O          24.0840   71.0220   -3.0287 O.2     1  UNL1       -0.5170
      4 O          23.6616   73.2620   -1.9450 O.3     1  UNL1       -0.3112
      5 C          22.7934   73.1934   -0.8123 C.3     1  UNL1        0.1811
      6 C          24.6879   71.6427    1.8227 C.3     1  UNL1        0.2383
      7 C          23.3808   72.1153    2.5086 C.3     1  UNL1        0.1895
      8 O          23.0312   71.2504    3.5909 O.3     1  UNL1       -0.3779
      9 C          22.3510   72.0040    1.3578 C.3     1  UNL1        0.1713
     10 C          23.2111   72.0217    0.0797 C.3     1  UNL1        0.1764
     11 O          24.5794   72.1811    0.4871 O.3     1  UNL1       -0.3308
     12 O          21.6244   70.7779    1.4553 O.3     1  UNL1       -0.3794
     13 H          22.2206   71.5050    4.0522 H       1  UNL1        0.2106
     14 H          21.1111   70.6877    2.2695 H       1  UNL1        0.2105
     15 N          25.8587   72.1944    2.5082 N.ar    1  UNL1       -0.2551
     16 C          25.7934   73.4207    3.0566 C.ar    1  UNL1        0.3323
     17 N          26.8541   73.9526    3.6924 N.ar    1  UNL1       -0.2743
     18 C          28.0053   73.2571    3.7908 C.ar    1  UNL1        0.2626
     19 C          28.0877   71.9647    3.2190 C.ar    1  UNL1        0.0795
     20 C          27.0075   71.4544    2.5911 C.ar    1  UNL1        0.0869
     21 O          24.7618   74.0590    2.9758 O.2     1  UNL1       -0.2464
     22 O          28.9659   73.7373    4.3663 O.2     1  UNL1       -0.2670
     23 H          26.7904   74.8386    4.0812 H       1  UNL1        0.1734
     24 O          21.8934   72.1623   -3.5503 O.3     1  UNL1       -0.2703
     25 P          20.8088   71.0357   -3.1667 P.3     1  UNL1        0.2208
     26 O          21.5264   69.5947   -3.1192 O.3     1  UNL1       -0.4371
     27 O          20.2280   71.3408   -1.8408 O.2     1  UNL1       -0.5170
     28 O          19.6397   71.0172   -4.2738 O.3     1  UNL1       -0.2865
     29 C          19.0040   69.8160   -4.7146 C.3     1  UNL1        0.2611
     30 C          18.0148   70.1430   -5.8359 C.3     1  UNL1        0.1582
     31 C          16.9261   71.0720   -5.2897 C.3     1  UNL1        0.1625
     32 C          16.2468   70.3976   -4.0948 C.3     1  UNL1        0.1686
     33 C          17.3045   70.0607   -3.0403 C.3     1  UNL1        0.1760
     34 O          15.9574   71.3237   -6.3103 O.3     1  UNL1       -0.3801
     35 O          15.6027   69.1975   -4.5262 O.3     1  UNL1       -0.3794
     36 O          18.3030   69.2197   -3.6213 O.3     1  UNL1       -0.3263
     37 H          15.2375   71.9069   -6.0334 H       1  UNL1        0.2105
     38 H          15.1510   68.7164   -3.8187 H       1  UNL1        0.2105
     39 C          18.6111   70.3368   -8.1905 C.2     1  UNL1        0.2231
     40 C          19.3371   71.0208   -9.3191 C.3     1  UNL1        0.0946
     41 N          18.7214   70.8088   -6.9331 N.am    1  UNL1       -0.2994
     42 O          17.9264   69.3601   -8.4131 O.2     1  UNL1       -0.2751
     43 H          19.2695   71.5890   -6.7546 H       1  UNL1        0.1496
     44 C          16.6426   69.3328   -1.8688 C.3     1  UNL1        0.1693
     45 O          17.0424   67.9607   -1.8725 O.3     1  UNL1       -0.3794
     46 H          16.6597   67.4370   -1.1553 H       1  UNL1        0.2105
@<TRIPOS>BOND
     1    29    30    1
     2    30    41    1
     3    30    31    1
     4    31    34    1
     5    31    32    1
     6    32    35    1
     7    32    33    1
     8    33    36    1
     9    33    44    1
    10    39    40    1
    11    39    42    2
    12    39    41   am
    13    41    43    1
    14    29    28    1
    15    34    37    1
    16    35    38    1
    17    29    36    1
    18    44    45    1
    19    45    46    1
    20    15     6    1
    21    15    16   ar
    22    16    21    2
    23    16    17   ar
    24    17    23    1
    25    17    18   ar
    26    18    19   ar
    27    19    20   ar
    28    15    20   ar
    29    18    22    2
    30     6     7    1
    31     6    11    1
    32     7     9    1
    33     7     8    1
    34     8    13    1
    35     9    10    1
    36     9    12    1
    37    10     5    1
    38    10    11    1
    39    12    14    1
    40     5     4    1
    41     4     1    1
    42     1     2    1
    43     1    24    1
    44     1     3    2
    45    24    25    1
    46    28    25    1
    47    25    26    1
    48    25    27    2
@<TRIPOS>MOLECULE
UD2
 46 48 0 0 0
SMALL
GASTEIGER

@<TRIPOS>ATOM
      1 P          21.1050   71.6363   -2.5868 P.3     1  UNL1        0.2189
      2 O          22.2572   70.6155   -3.0576 O.3     1  UNL1       -0.4371
      3 O          21.4369   73.0024   -3.0477 O.2     1  UNL1       -0.5170
      4 O          19.6954   71.1837   -3.2208 O.3     1  UNL1       -0.3112
      5 C          18.5336   70.9281   -2.4294 C.3     1  UNL1        0.1811
      6 C          16.8584   70.5851   -5.5936 C.3     1  UNL1        0.2383
      7 C          16.9177   69.1442   -5.0259 C.3     1  UNL1        0.1895
      8 O          15.7950   68.3766   -5.4641 O.3     1  UNL1       -0.3779
      9 C          16.8544   69.3933   -3.4990 C.3     1  UNL1        0.1713
     10 C          17.3035   70.8581   -3.3376 C.3     1  UNL1        0.1764
     11 O          17.6332   71.3512   -4.6459 O.3     1  UNL1       -0.3308
     12 O          15.5191   69.2234   -3.0208 O.3     1  UNL1       -0.3794
     13 H          15.7874   67.4674   -5.1356 H       1  UNL1        0.2106
     14 H          15.1640   68.3338   -3.1512 H       1  UNL1        0.2105
     15 N          17.4682   70.6408   -6.9240 N.ar    1  UNL1       -0.2551
     16 C          16.9042   71.3945   -7.8846 C.ar    1  UNL1        0.3323
     17 N          17.4430   71.4642   -9.1163 N.ar    1  UNL1       -0.2743
     18 C          18.5656   70.7754   -9.4060 C.ar    1  UNL1        0.2626
     19 C          19.1705   69.9789   -8.4041 C.ar    1  UNL1        0.0795
     20 C          18.6111   69.9309   -7.1768 C.ar    1  UNL1        0.0869
     21 O          15.8919   72.0210   -7.6375 O.2     1  UNL1       -0.2464
     22 O          19.0545   70.8380  -10.5203 O.2     1  UNL1       -0.2670
     23 H          17.0229   72.0114   -9.7976 H       1  UNL1        0.1734
     24 O          20.9991   71.6225   -0.9800 O.3     1  UNL1       -0.2703
     25 P          22.0246   71.2515    0.2047 P.3     1  UNL1        0.2208
     26 O          21.5502   69.8872    0.9170 O.3     1  UNL1       -0.4371
     27 O          23.3813   71.0686   -0.3560 O.2     1  UNL1       -0.5170
     28 O          22.0472   72.4430    1.2876 O.3     1  UNL1       -0.2865
     29 C          22.2610   72.2228    2.6829 C.3     1  UNL1        0.2611
     30 C          21.9070   73.4924    3.4610 C.3     1  UNL1        0.1582
     31 C          22.8378   74.6267    3.0211 C.3     1  UNL1        0.1625
     32 C          24.2902   74.1958    3.2432 C.3     1  UNL1        0.1686
     33 C          24.5524   72.8988    2.4732 C.3     1  UNL1        0.1760
     34 O          22.5631   75.7967    3.7950 O.3     1  UNL1       -0.3801
     35 O          24.5162   73.9785    4.6371 O.3     1  UNL1       -0.3794
     36 O          23.6335   71.8945    2.9081 O.3     1  UNL1       -0.3263
     37 H          23.1168   76.5565    3.5685 H       1  UNL1        0.2105
     38 H          25.4180   73.7017    4.8515 H       1  UNL1        0.2105
     39 C          19.7152   74.2700    4.1884 C.2     1  UNL1        0.2231
     40 C          18.2863   74.6527    3.9047 C.3     1  UNL1        0.0946
     41 N          20.5172   73.8644    3.1842 N.am    1  UNL1       -0.2994
     42 O          20.1449   74.3265    5.3217 O.2     1  UNL1       -0.2751
     43 H          20.1737   73.8180    2.2782 H       1  UNL1        0.1496
     44 C          25.9842   72.4294    2.7379 C.3     1  UNL1        0.1693
     45 O          26.1105   71.0536    2.3726 O.3     1  UNL1       -0.3794
     46 H          26.9945   70.6880    2.5140 H       1  UNL1        0.2105
@<TRIPOS>BOND
     1    29    30    1
     2    30    41    1
     3    30    31    1
     4    31    34    1
     5    31    32    1
     6    32    35    1
     7    32    33    1
     8    33    36    1
     9    33    44    1
    10    39    40    1
    11    39    42    2
    12    39    41   am
    13    41    43    1
    14    29    28    1
    15    34    37    1
    16    35    38    1
    17    29    36    1
    18    44    45    1
    19    45    46    1
    20    15     6    1
    21    15    16   ar
    22    16    21    2
    23    16    17   ar
    24    17    23    1
    25    17    18   ar
    26    18    19   ar
    27    19    20   ar
    28    15    20   ar
    29    18    22    2
    30     6     7    1
    31     6    11    1
    32     7     9    1
    33     7     8    1
    34     8    13    1
    35     9    10    1
    36     9    12    1
    37    10     5    1
    38    10    11    1
    39    12    14    1
    40     5     4    1
    41     4     1    1
    42     1     2    1
    43     1    24    1
    44     1     3    2
    45    24    25    1
    46    28    25    1
    47    25    26    1
    48    25    27    2
@<TRIPOS>MOLECULE
UD2
 46 48 0 0 0
SMALL
GASTEIGER

@<TRIPOS>ATOM
      1 P          20.9821   71.3446   -2.2072 P.3     1  UNL1        0.2189
      2 O          20.9134   70.5751   -0.7949 O.3     1  UNL1       -0.4371
      3 O          21.9556   70.6673   -3.0919 O.2     1  UNL1       -0.5170
      4 O          19.5274   71.3286   -2.8981 O.3     1  UNL1       -0.3112
      5 C          18.4726   70.4658   -2.4689 C.3     1  UNL1        0.1811
      6 C          16.9336   70.4704   -5.7197 C.3     1  UNL1        0.2383
      7 C          16.7932   69.0086   -5.2242 C.3     1  UNL1        0.1895
      8 O          15.6118   68.4024   -5.7518 O.3     1  UNL1       -0.3779
      9 C          16.6813   69.1942   -3.6911 C.3     1  UNL1        0.1713
     10 C          17.2912   70.5856   -3.4347 C.3     1  UNL1        0.1764
     11 O          17.7436   71.0941   -4.6997 O.3     1  UNL1       -0.3308
     12 O          15.3124   69.1648   -3.2836 O.3     1  UNL1       -0.3794
     13 H          15.4801   67.4868   -5.4708 H       1  UNL1        0.2106
     14 H          14.8620   68.3312   -3.4753 H       1  UNL1        0.2105
     15 N          17.6134   70.5125   -7.0163 N.ar    1  UNL1       -0.2551
     16 C          16.8890   70.4970   -8.1493 C.ar    1  UNL1        0.3323
     17 N          17.4873   70.5346   -9.3547 N.ar    1  UNL1       -0.2743
     18 C          18.8317   70.5906   -9.4437 C.ar    1  UNL1        0.2626
     19 C          19.6066   70.6085   -8.2590 C.ar    1  UNL1        0.0795
     20 C          18.9801   70.5742   -7.0641 C.ar    1  UNL1        0.0869
     21 O          15.6759   70.4469   -8.0842 O.2     1  UNL1       -0.2464
     22 O          19.3744   70.6251  -10.5340 O.2     1  UNL1       -0.2670
     23 H          16.9500   70.5215  -10.1617 H       1  UNL1        0.1734
     24 O          21.4445   72.8682   -1.9667 O.3     1  UNL1       -0.2703
     25 P          22.4943   73.5738   -0.9701 P.3     1  UNL1        0.2208
     26 O          23.9242   72.8430   -1.0926 O.3     1  UNL1       -0.4371
     27 O          22.6375   75.0006   -1.3335 O.2     1  UNL1       -0.5170
     28 O          21.9590   73.4562    0.5440 O.3     1  UNL1       -0.2865
     29 C          22.1388   74.4882    1.5155 C.3     1  UNL1        0.2611
     30 C          22.6425   73.8757    2.8247 C.3     1  UNL1        0.1582
     31 C          21.5858   72.9072    3.3650 C.3     1  UNL1        0.1625
     32 C          20.2647   73.6594    3.5466 C.3     1  UNL1        0.1686
     33 C          19.8525   74.2804    2.2093 C.3     1  UNL1        0.1760
     34 O          22.0158   72.3861    4.6247 O.3     1  UNL1       -0.3801
     35 O          20.4323   74.6907    4.5211 O.3     1  UNL1       -0.3794
     36 O          20.8915   75.1460    1.7475 O.3     1  UNL1       -0.3263
     37 H          21.3936   71.7636    5.0254 H       1  UNL1        0.2105
     38 H          19.6330   75.2099    4.6868 H       1  UNL1        0.2105
     39 C          23.8623   71.8266    2.3237 C.2     1  UNL1        0.2231
     40 C          25.1452   71.0797    2.0686 C.3     1  UNL1        0.0946
     41 N          23.8908   73.1499    2.5769 N.am    1  UNL1       -0.2994
     42 O          22.8022   71.2368    2.3015 O.2     1  UNL1       -0.2751
     43 H          24.7383   73.6216    2.5957 H       1  UNL1        0.1496
     44 C          18.5641   75.0839    2.3958 C.3     1  UNL1        0.1693
     45 O          18.8886   76.4346    2.7316 O.3     1  UNL1       -0.3794
     46 H          18.1180   77.0033    2.8650 H       1  UNL1        0.2105
@<TRIPOS>BOND
     1    29    30    1
     2    30    41    1
     3    30    31    1
     4    31    34    1
     5    31    32    1
     6    32    35    1
     7    32    33    1
     8    33    36    1
     9    33    44    1
    10    39    40    1
    11    39    42    2
    12    39    41   am
    13    41    43    1
    14    29    28    1
    15    34    37    1
    16    35    38    1
    17    29    36    1
    18    44    45    1
    19    45    46    1
    20    15     6    1
    21    15    16   ar
    22    16    21    2
    23    16    17   ar
    24    17    23    1
    25    17    18   ar
    26    18    19   ar
    27    19    20   ar
    28    15    20   ar
    29    18    22    2
    30     6     7    1
    31     6    11    1
    32     7     9    1
    33     7     8    1
    34     8    13    1
    35     9    10    1
    36     9    12    1
    37    10     5    1
    38    10    11    1
    39    12    14    1
    40     5     4    1
    41     4     1    1
    42     1     2    1
    43     1    24    1
    44     1     3    2
    45    24    25    1
    46    28    25    1
    47    25    26    1
    48    25    27    2
@<TRIPOS>MOLECULE
UD2
 46 48 0 0 0
SMALL
GASTEIGER

@<TRIPOS>ATOM
      1 P          16.2906   69.5258   -2.6285 P.3     1  UNL1        0.2189
      2 O          17.0931   68.3325   -1.9051 O.3     1  UNL1       -0.4371
      3 O          15.9944   69.1451   -4.0271 O.2     1  UNL1       -0.5170
      4 O          14.9114   69.7982   -1.8428 O.3     1  UNL1       -0.3112
      5 C          14.6767   69.3504   -0.5064 C.3     1  UNL1        0.1811
      6 C          11.2098   68.3937   -0.4629 C.3     1  UNL1        0.2383
      7 C          11.7830   67.8421    0.8673 C.3     1  UNL1        0.1895
      8 O          10.7817   67.8264    1.8865 O.3     1  UNL1       -0.3779
      9 C          12.8903   68.8731    1.1966 C.3     1  UNL1        0.1713
     10 C          13.1985   69.5402   -0.1575 C.3     1  UNL1        0.1764
     11 O          12.3767   68.9000   -1.1467 O.3     1  UNL1       -0.3308
     12 O          12.4099   69.8393    2.1328 O.3     1  UNL1       -0.3794
     13 H          11.0919   67.4888    2.7377 H       1  UNL1        0.2106
     14 H          12.1451   69.4654    2.9840 H       1  UNL1        0.2105
     15 N          10.5820   67.3213   -1.2380 N.ar    1  UNL1       -0.2551
     16 C           9.6359   67.6211   -2.1457 C.ar    1  UNL1        0.3323
     17 N           9.0419   66.6558   -2.8720 N.ar    1  UNL1       -0.2743
     18 C           9.3912   65.3647   -2.6997 C.ar    1  UNL1        0.2626
     19 C          10.3863   65.0349   -1.7484 C.ar    1  UNL1        0.0795
     20 C          10.9682   66.0234   -1.0371 C.ar    1  UNL1        0.0869
     21 O           9.3111   68.7810   -2.3118 O.2     1  UNL1       -0.2464
     22 O           8.8546   64.4901   -3.3567 O.2     1  UNL1       -0.2670
     23 H           8.3608   66.8893   -3.5214 H       1  UNL1        0.1734
     24 O          17.1885   70.8625   -2.6144 O.3     1  UNL1       -0.2703
     25 P          17.0683   72.2976   -3.3350 P.3     1  UNL1        0.2208
     26 O          15.6752   72.3787   -4.1392 O.3     1  UNL1       -0.4371
     27 O          17.1110   73.3675   -2.3144 O.2     1  UNL1       -0.5170
     28 O          18.2934   72.4863   -4.3626 O.3     1  UNL1       -0.2865
     29 C          19.1376   71.4094   -4.7736 C.3     1  UNL1        0.2611
     30 C          20.3201   71.9629   -5.5723 C.3     1  UNL1        0.1582
     31 C          19.7944   72.6503   -6.8363 C.3     1  UNL1        0.1625
     32 C          18.9675   71.6462   -7.6441 C.3     1  UNL1        0.1686
     33 C          17.8368   71.1047   -6.7653 C.3     1  UNL1        0.1760
     34 O          20.8960   73.1059   -7.6251 O.3     1  UNL1       -0.3801
     35 O          19.8043   70.5674   -8.0651 O.3     1  UNL1       -0.3794
     36 O          18.3921   70.5061   -5.5926 O.3     1  UNL1       -0.3263
     37 H          20.6358   73.5528   -8.4423 H       1  UNL1        0.2105
     38 H          19.3450   69.8914   -8.5828 H       1  UNL1        0.2105
     39 C          22.3904   73.0350   -4.8636 C.2     1  UNL1        0.2231
     40 C          23.1425   74.0336   -4.0235 C.3     1  UNL1        0.0946
     41 N          21.0510   72.9344   -4.7547 N.am    1  UNL1       -0.2994
     42 O          22.9905   72.3203   -5.6391 O.2     1  UNL1       -0.2751
     43 H          20.5710   73.5049   -4.1341 H       1  UNL1        0.1496
     44 C          17.0419   70.0564   -7.5459 C.3     1  UNL1        0.1693
     45 O          16.9102   70.4732   -8.9065 O.3     1  UNL1       -0.3794
     46 H          16.4159   69.8548   -9.4618 H       1  UNL1        0.2105
@<TRIPOS>BOND
     1    29    30    1
     2    30    41    1
     3    30    31    1
     4    31    34    1
     5    31    32    1
     6    32    35    1
     7    32    33    1
     8    33    36    1
     9    33    44    1
    10    39    40    1
    11    39    42    2
    12    39    41   am
    13    41    43    1
    14    29    28    1
    15    34    37    1
    16    35    38    1
    17    29    36    1
    18    44    45    1
    19    45    46    1
    20    15     6    1
    21    15    16   ar
    22    16    21    2
    23    16    17   ar
    24    17    23    1
    25    17    18   ar
    26    18    19   ar
    27    19    20   ar
    28    15    20   ar
    29    18    22    2
    30     6     7    1
    31     6    11    1
    32     7     9    1
    33     7     8    1
    34     8    13    1
    35     9    10    1
    36     9    12    1
    37    10     5    1
    38    10    11    1
    39    12    14    1
    40     5     4    1
    41     4     1    1
    42     1     2    1
    43     1    24    1
    44     1     3    2
    45    24    25    1
    46    28    25    1
    47    25    26    1
    48    25    27    2
@<TRIPOS>MOLECULE
UD2
 46 48 0 0 0
SMALL
GASTEIGER

@<TRIPOS>ATOM
      1 P          21.2155   71.3439   -1.9639 P.3     1  UNL1        0.2189
      2 O          21.0423   70.6219   -0.5356 O.3     1  UNL1       -0.4371
      3 O          22.3175   70.7004   -2.7124 O.2     1  UNL1       -0.5170
      4 O          19.8470   71.2097   -2.8023 O.3     1  UNL1       -0.3112
      5 C          18.8756   70.1935   -2.5468 C.3     1  UNL1        0.1811
      6 C          17.1453   70.3945   -5.6936 C.3     1  UNL1        0.2383
      7 C          16.9242   68.9355   -5.2198 C.3     1  UNL1        0.1895
      8 O          15.6698   68.4329   -5.6842 O.3     1  UNL1       -0.3779
      9 C          16.9209   69.0907   -3.6792 C.3     1  UNL1        0.1713
     10 C          17.6498   70.4256   -3.4338 C.3     1  UNL1        0.1764
     11 O          18.0616   70.9300   -4.7142 O.3     1  UNL1       -0.3308
     12 O          15.5813   69.1540   -3.1871 O.3     1  UNL1       -0.3794
     13 H          15.4859   67.5230   -5.4139 H       1  UNL1        0.2106
     14 H          15.0575   68.3616   -3.3669 H       1  UNL1        0.2105
     15 N          17.7457   70.4177   -7.0293 N.ar    1  UNL1       -0.2551
     16 C          16.9544   70.4887   -8.1145 C.ar    1  UNL1        0.3323
     17 N          17.4789   70.5113   -9.3541 N.ar    1  UNL1       -0.2743
     18 C          18.8155   70.4647   -9.5264 C.ar    1  UNL1        0.2626
     19 C          19.6604   70.3908   -8.3929 C.ar    1  UNL1        0.0795
     20 C          19.1075   70.3739   -7.1618 C.ar    1  UNL1        0.0869
     21 O          15.7474   70.5316   -7.9741 O.2     1  UNL1       -0.2464
     22 O          19.2915   70.4855  -10.6478 O.2     1  UNL1       -0.2670
     23 H          16.8939   70.5615  -10.1257 H       1  UNL1        0.1734
     24 O          21.5562   72.9019   -1.7402 O.3     1  UNL1       -0.2703
     25 P          20.8901   74.2763   -2.2501 P.3     1  UNL1        0.2208
     26 O          19.6189   73.9429   -3.1811 O.3     1  UNL1       -0.4371
     27 O          20.4512   75.0744   -1.0845 O.2     1  UNL1       -0.5170
     28 O          21.9719   75.1146   -3.0984 O.3     1  UNL1       -0.2865
     29 C          21.6125   76.1713   -3.9902 C.3     1  UNL1        0.2611
     30 C          22.2657   75.9339   -5.3539 C.3     1  UNL1        0.1582
     31 C          23.7887   75.9595   -5.1922 C.3     1  UNL1        0.1625
     32 C          24.2034   77.2981   -4.5752 C.3     1  UNL1        0.1686
     33 C          23.4753   77.4829   -3.2412 C.3     1  UNL1        0.1760
     34 O          24.4070   75.8118   -6.4725 O.3     1  UNL1       -0.3801
     35 O          23.8533   78.3618   -5.4624 O.3     1  UNL1       -0.3794
     36 O          22.0643   77.4181   -3.4574 O.3     1  UNL1       -0.3263
     37 H          25.3737   75.8184   -6.4451 H       1  UNL1        0.2105
     38 H          24.0868   79.2415   -5.1343 H       1  UNL1        0.2105
     39 C          22.5759   73.5288   -5.5929 C.2     1  UNL1        0.2231
     40 C          22.1496   72.1869   -6.1277 C.3     1  UNL1        0.0946
     41 N          21.8504   74.6290   -5.8747 N.am    1  UNL1       -0.2994
     42 O          23.5732   73.6200   -4.9078 O.2     1  UNL1       -0.2751
     43 H          21.0536   74.5567   -6.4232 H       1  UNL1        0.1496
     44 C          23.8385   78.8450   -2.6468 C.3     1  UNL1        0.1693
     45 O          25.0844   78.7463   -1.9537 O.3     1  UNL1       -0.3794
     46 H          25.3774   79.5747   -1.5503 H       1  UNL1        0.2105
@<TRIPOS>BOND
     1    29    30    1
     2    30    41    1
     3    30    31    1
     4    31    34    1
     5    31    32    1
     6    32    35    1
     7    32    33    1
     8    33    36    1
     9    33    44    1
    10    39    40    1
    11    39    42    2
    12    39    41   am
    13    41    43    1
    14    29    28    1
    15    34    37    1
    16    35    38    1
    17    29    36    1
    18    44    45    1
    19    45    46    1
    20    15     6    1
    21    15    16   ar
    22    16    21    2
    23    16    17   ar
    24    17    23    1
    25    17    18   ar
    26    18    19   ar
    27    19    20   ar
    28    15    20   ar
    29    18    22    2
    30     6     7    1
    31     6    11    1
    32     7     9    1
    33     7     8    1
    34     8    13    1
    35     9    10    1
    36     9    12    1
    37    10     5    1
    38    10    11    1
    39    12    14    1
    40     5     4    1
    41     4     1    1
    42     1     2    1
    43     1    24    1
    44     1     3    2
    45    24    25    1
    46    28    25    1
    47    25    26    1
    48    25    27    2
@<TRIPOS>MOLECULE
UD2
 46 48 0 0 0
SMALL
GASTEIGER

@<TRIPOS>ATOM
      1 P          23.3894   72.1482   -3.5215 P.3     1  UNL1        0.2189
      2 O          24.3575   72.9351   -4.5388 O.3     1  UNL1       -0.4371
      3 O          24.0493   70.9012   -3.0764 O.2     1  UNL1       -0.5170
      4 O          23.0835   73.0793   -2.2435 O.3     1  UNL1       -0.3112
      5 C          22.1424   72.7223   -1.2294 C.3     1  UNL1        0.1811
      6 C          24.2709   71.7590    1.5052 C.3     1  UNL1        0.2383
      7 C          22.8787   71.9731    2.1517 C.3     1  UNL1        0.1895
      8 O          22.7011   71.1111    3.2774 O.3     1  UNL1       -0.3779
      9 C          21.9213   71.5812    0.9996 C.3     1  UNL1        0.1713
     10 C          22.7840   71.7173   -0.2696 C.3     1  UNL1        0.1764
     11 O          24.0769   72.1902    0.1406 O.3     1  UNL1       -0.3308
     12 O          21.4743   70.2338    1.1588 O.3     1  UNL1       -0.3794
     13 H          21.8452   71.2082    3.7163 H       1  UNL1        0.2106
     14 H          20.9755   70.0776    1.9721 H       1  UNL1        0.2105
     15 N          25.2807   72.5862    2.1694 N.ar    1  UNL1       -0.2551
     16 C          26.3910   72.0120    2.6659 C.ar    1  UNL1        0.3323
     17 N          27.3354   72.7478    3.2814 N.ar    1  UNL1       -0.2743
     18 C          27.1813   74.0815    3.4081 C.ar    1  UNL1        0.2626
     19 C          26.0179   74.6992    2.8892 C.ar    1  UNL1        0.0795
     20 C          25.0894   73.9377    2.2732 C.ar    1  UNL1        0.0869
     21 O          26.5434   70.8105    2.5586 O.2     1  UNL1       -0.2464
     22 O          28.0355   74.7486    3.9646 O.2     1  UNL1       -0.2670
     23 H          28.1293   72.3177    3.6347 H       1  UNL1        0.1734
     24 O          22.0073   71.7884   -4.2656 O.3     1  UNL1       -0.2703
     25 P          20.9078   72.6547   -5.0616 P.3     1  UNL1        0.2208
     26 O          20.6459   74.0378   -4.2793 O.3     1  UNL1       -0.4371
     27 O          21.4015   72.9458   -6.4253 O.2     1  UNL1       -0.5170
     28 O          19.5329   71.8216   -5.1546 O.3     1  UNL1       -0.2865
     29 C          19.4909   70.4114   -5.3800 C.3     1  UNL1        0.2611
     30 C          18.4122   70.0915   -6.4177 C.3     1  UNL1        0.1582
     31 C          17.0464   70.5157   -5.8691 C.3     1  UNL1        0.1625
     32 C          16.7997   69.8028   -4.5366 C.3     1  UNL1        0.1686
     33 C          17.9409   70.1340   -3.5712 C.3     1  UNL1        0.1760
     34 O          16.0246   70.1537   -6.8008 O.3     1  UNL1       -0.3801
     35 O          16.7502   68.3913   -4.7521 O.3     1  UNL1       -0.3794
     36 O          19.1851   69.7425   -4.1548 O.3     1  UNL1       -0.3263
     37 H          15.1316   70.3938   -6.5175 H       1  UNL1        0.2105
     38 H          16.5970   67.8752   -3.9483 H       1  UNL1        0.2105
     39 C          19.0149   70.1516   -8.7780 C.2     1  UNL1        0.2231
     40 C          19.3020   70.9036  -10.0510 C.3     1  UNL1        0.0946
     41 N          18.6916   70.8238   -7.6556 N.am    1  UNL1       -0.2994
     42 O          19.0748   68.9399   -8.7624 O.2     1  UNL1       -0.2751
     43 H          18.6446   71.7926   -7.6673 H       1  UNL1        0.1496
     44 C          17.7329   69.3780   -2.2576 C.3     1  UNL1        0.1693
     45 O          16.3842   68.9110   -2.1843 O.3     1  UNL1       -0.3794
     46 H          16.1802   68.4216   -1.3757 H       1  UNL1        0.2105
@<TRIPOS>BOND
     1    29    30    1
     2    30    41    1
     3    30    31    1
     4    31    34    1
     5    31    32    1
     6    32    35    1
     7    32    33    1
     8    33    36    1
     9    33    44    1
    10    39    40    1
    11    39    42    2
    12    39    41   am
    13    41    43    1
    14    29    28    1
    15    34    37    1
    16    35    38    1
    17    29    36    1
    18    44    45    1
    19    45    46    1
    20    15     6    1
    21    15    16   ar
    22    16    21    2
    23    16    17   ar
    24    17    23    1
    25    17    18   ar
    26    18    19   ar
    27    19    20   ar
    28    15    20   ar
    29    18    22    2
    30     6     7    1
    31     6    11    1
    32     7     9    1
    33     7     8    1
    34     8    13    1
    35     9    10    1
    36     9    12    1
    37    10     5    1
    38    10    11    1
    39    12    14    1
    40     5     4    1
    41     4     1    1
    42     1     2    1
    43     1    24    1
    44     1     3    2
    45    24    25    1
    46    28    25    1
    47    25    26    1
    48    25    27    2
@<TRIPOS>MOLECULE
UD2
 46 48 0 0 0
SMALL
GASTEIGER

@<TRIPOS>ATOM
      1 P          20.3810   73.1410   -0.5429 P.3     1  UNL1        0.2189
      2 O          20.6842   71.5639   -0.6530 O.3     1  UNL1       -0.4371
      3 O          19.3573   73.3756    0.4991 O.2     1  UNL1       -0.5170
      4 O          21.7342   73.9214   -0.1512 O.3     1  UNL1       -0.3112
      5 C          22.4130   73.7249    1.0906 C.3     1  UNL1        0.1811
      6 C          25.5068   72.1078    1.9564 C.3     1  UNL1        0.2383
      7 C          24.4159   71.2699    2.6706 C.3     1  UNL1        0.1895
      8 O          24.8120   69.9011    2.7767 O.3     1  UNL1       -0.3779
      9 C          23.2091   71.4231    1.7128 C.3     1  UNL1        0.1713
     10 C          23.5294   72.6945    0.9039 C.3     1  UNL1        0.1764
     11 O          24.7685   73.2201    1.4057 O.3     1  UNL1       -0.3308
     12 O          23.1119   70.2905    0.8477 O.3     1  UNL1       -0.3794
     13 H          24.1625   69.3364    3.2170 H       1  UNL1        0.2106
     14 H          22.9694   69.4531    1.3092 H       1  UNL1        0.2105
     15 N          26.5078   72.5774    2.9169 N.ar    1  UNL1       -0.2551
     16 C          26.2329   73.6332    3.7033 C.ar    1  UNL1        0.3323
     17 N          27.1341   74.0865    4.5947 N.ar    1  UNL1       -0.2743
     18 C          28.3338   73.4824    4.7139 C.ar    1  UNL1        0.2626
     19 C          28.6362   72.3693    3.8931 C.ar    1  UNL1        0.0795
     20 C          27.7122   71.9336    3.0110 C.ar    1  UNL1        0.0869
     21 O          25.1550   74.1876    3.6069 O.2     1  UNL1       -0.2464
     22 O          29.1503   73.8913    5.5206 O.2     1  UNL1       -0.2670
     23 H          26.9201   74.8497    5.1532 H       1  UNL1        0.1734
     24 O          19.8400   73.6839   -1.9592 O.3     1  UNL1       -0.2703
     25 P          19.9975   73.1845   -3.4819 P.3     1  UNL1        0.2208
     26 O          19.9844   74.4578   -4.4679 O.3     1  UNL1       -0.4371
     27 O          21.2770   72.4575   -3.6330 O.2     1  UNL1       -0.5170
     28 O          18.7756   72.2043   -3.8542 O.3     1  UNL1       -0.2865
     29 C          18.9499   70.8137   -4.1319 C.3     1  UNL1        0.2611
     30 C          18.3339   70.4831   -5.4935 C.3     1  UNL1        0.1582
     31 C          16.8286   70.7625   -5.4447 C.3     1  UNL1        0.1625
     32 C          16.2048   69.9437   -4.3113 C.3     1  UNL1        0.1686
     33 C          16.9030   70.2951   -2.9949 C.3     1  UNL1        0.1760
     34 O          16.2330   70.3873   -6.6888 O.3     1  UNL1       -0.3801
     35 O          16.3688   68.5505   -4.5823 O.3     1  UNL1       -0.3794
     36 O          18.3038   70.0412   -3.1179 O.3     1  UNL1       -0.3263
     37 H          15.2786   70.5381   -6.7288 H       1  UNL1        0.2105
     38 H          15.9967   67.9705   -3.9032 H       1  UNL1        0.2105
     39 C          20.1722   71.0011   -7.0069 C.2     1  UNL1        0.2231
     40 C          20.8098   71.8580   -8.0688 C.3     1  UNL1        0.0946
     41 N          18.9536   71.3174   -6.5263 N.am    1  UNL1       -0.2994
     42 O          20.7558   70.0252   -6.5834 O.2     1  UNL1       -0.2751
     43 H          18.4871   72.0980   -6.8639 H       1  UNL1        0.1496
     44 C          16.3260   69.4376   -1.8670 C.3     1  UNL1        0.1693
     45 O          16.9491   68.1515   -1.8790 O.3     1  UNL1       -0.3794
     46 H          16.6310   67.5533   -1.1890 H       1  UNL1        0.2105
@<TRIPOS>BOND
     1    29    30    1
     2    30    41    1
     3    30    31    1
     4    31    34    1
     5    31    32    1
     6    32    35    1
     7    32    33    1
     8    33    36    1
     9    33    44    1
    10    39    40    1
    11    39    42    2
    12    39    41   am
    13    41    43    1
    14    29    28    1
    15    34    37    1
    16    35    38    1
    17    29    36    1
    18    44    45    1
    19    45    46    1
    20    15     6    1
    21    15    16   ar
    22    16    21    2
    23    16    17   ar
    24    17    23    1
    25    17    18   ar
    26    18    19   ar
    27    19    20   ar
    28    15    20   ar
    29    18    22    2
    30     6     7    1
    31     6    11    1
    32     7     9    1
    33     7     8    1
    34     8    13    1
    35     9    10    1
    36     9    12    1
    37    10     5    1
    38    10    11    1
    39    12    14    1
    40     5     4    1
    41     4     1    1
    42     1     2    1
    43     1    24    1
    44     1     3    2
    45    24    25    1
    46    28    25    1
    47    25    26    1
    48    25    27    2
@<TRIPOS>MOLECULE
UD2
 46 48 0 0 0
SMALL
GASTEIGER

@<TRIPOS>ATOM
      1 P          21.1724   71.3588   -2.0858 P.3     1  UNL1        0.2189
      2 O          21.1354   70.5176   -0.7138 O.3     1  UNL1       -0.4371
      3 O          22.1791   70.7724   -2.9977 O.2     1  UNL1       -0.5170
      4 O          19.7221   71.3097   -2.7845 O.3     1  UNL1       -0.3112
      5 C          18.6945   70.4035   -2.3791 C.3     1  UNL1        0.1811
      6 C          17.0568   70.4756   -5.5805 C.3     1  UNL1        0.2383
      7 C          16.9070   69.0101   -5.0991 C.3     1  UNL1        0.1895
      8 O          15.6998   68.4303   -5.5975 O.3     1  UNL1       -0.3779
      9 C          16.8453   69.1776   -3.5610 C.3     1  UNL1        0.1713
     10 C          17.4862   70.5553   -3.3064 C.3     1  UNL1        0.1764
     11 O          17.9082   71.0726   -4.5783 O.3     1  UNL1       -0.3308
     12 O          15.4893   69.1656   -3.1119 O.3     1  UNL1       -0.3794
     13 H          15.5613   67.5135   -5.3239 H       1  UNL1        0.2106
     14 H          15.0191   68.3422   -3.2999 H       1  UNL1        0.2105
     15 N          17.6971   70.5232   -6.8969 N.ar    1  UNL1       -0.2551
     16 C          16.9397   70.4941   -8.0078 C.ar    1  UNL1        0.3323
     17 N          17.5013   70.5364   -9.2305 N.ar    1  UNL1       -0.2743
     18 C          18.8416   70.6109   -9.3596 C.ar    1  UNL1        0.2626
     19 C          19.6510   70.6433   -8.1986 C.ar    1  UNL1        0.0795
     20 C          19.0608   70.6039   -6.9854 C.ar    1  UNL1        0.0869
     21 O          15.7299   70.4272   -7.9065 O.2     1  UNL1       -0.2464
     22 O          19.3511   70.6496  -10.4657 O.2     1  UNL1       -0.2670
     23 H          16.9405   70.5133  -10.0212 H       1  UNL1        0.1734
     24 O          21.5624   72.8884   -1.7675 O.3     1  UNL1       -0.2703
     25 P          22.5761   73.5914   -0.7326 P.3     1  UNL1        0.2208
     26 O          23.7337   72.5489   -0.3241 O.3     1  UNL1       -0.4371
     27 O          23.1855   74.7798   -1.3688 O.2     1  UNL1       -0.5170
     28 O          21.7696   74.0423    0.5860 O.3     1  UNL1       -0.2865
     29 C          21.0343   73.1267    1.3999 C.3     1  UNL1        0.2611
     30 C          19.6559   73.7140    1.7127 C.3     1  UNL1        0.1582
     31 C          19.8317   75.0090    2.5118 C.3     1  UNL1        0.1625
     32 C          20.6360   74.7088    3.7796 C.3     1  UNL1        0.1686
     33 C          21.9770   74.0830    3.3870 C.3     1  UNL1        0.1760
     34 O          18.5483   75.5256    2.8716 O.3     1  UNL1       -0.3801
     35 O          19.9064   73.7979    4.6037 O.3     1  UNL1       -0.3794
     36 O          21.7425   72.9001    2.6203 O.3     1  UNL1       -0.3263
     37 H          18.5840   76.3474    3.3801 H       1  UNL1        0.2105
     38 H          20.3581   73.5621    5.4261 H       1  UNL1        0.2105
     39 C          19.0598   75.2196   -0.1081 C.2     1  UNL1        0.2231
     40 C          18.3362   75.5172   -1.3951 C.3     1  UNL1        0.0946
     41 N          18.9515   74.0028    0.4610 N.am    1  UNL1       -0.2994
     42 O          19.7407   76.0756    0.4171 O.2     1  UNL1       -0.2751
     43 H          18.4064   73.3185    0.0420 H       1  UNL1        0.1496
     44 C          22.7619   73.7251    4.6504 C.3     1  UNL1        0.1693
     45 O          22.4098   72.4062    5.0732 O.3     1  UNL1       -0.3794
     46 H          22.8704   72.1122    5.8710 H       1  UNL1        0.2105
@<TRIPOS>BOND
     1    29    30    1
     2    30    41    1
     3    30    31    1
     4    31    34    1
     5    31    32    1
     6    32    35    1
     7    32    33    1
     8    33    36    1
     9    33    44    1
    10    39    40    1
    11    39    42    2
    12    39    41   am
    13    41    43    1
    14    29    28    1
    15    34    37    1
    16    35    38    1
    17    29    36    1
    18    44    45    1
    19    45    46    1
    20    15     6    1
    21    15    16   ar
    22    16    21    2
    23    16    17   ar
    24    17    23    1
    25    17    18   ar
    26    18    19   ar
    27    19    20   ar
    28    15    20   ar
    29    18    22    2
    30     6     7    1
    31     6    11    1
    32     7     9    1
    33     7     8    1
    34     8    13    1
    35     9    10    1
    36     9    12    1
    37    10     5    1
    38    10    11    1
    39    12    14    1
    40     5     4    1
    41     4     1    1
    42     1     2    1
    43     1    24    1
    44     1     3    2
    45    24    25    1
    46    28    25    1
    47    25    26    1
    48    25    27    2
@<TRIPOS>MOLECULE
UD2
 46 48 0 0 0
SMALL
GASTEIGER

@<TRIPOS>ATOM
      1 P          16.2116   69.6343   -2.2601 P.3     1  UNL1        0.2189
      2 O          15.9758   69.0056   -3.7232 O.3     1  UNL1       -0.4371
      3 O          15.5064   70.9311   -2.1602 O.2     1  UNL1       -0.5170
      4 O          15.6390   68.6245   -1.1437 O.3     1  UNL1       -0.3112
      5 C          14.6834   69.0178   -0.1570 C.3     1  UNL1        0.1811
      6 C          13.0166   66.8870    2.2133 C.3     1  UNL1        0.2383
      7 C          11.9236   67.8827    1.7484 C.3     1  UNL1        0.1895
      8 O          10.6314   67.2738    1.7820 O.3     1  UNL1       -0.3779
      9 C          12.3552   68.1828    0.2920 C.3     1  UNL1        0.1713
     10 C          13.8480   67.8035    0.2559 C.3     1  UNL1        0.1764
     11 O          14.2152   67.3850    1.5801 O.3     1  UNL1       -0.3308
     12 O          11.6118   67.3777   -0.6245 O.3     1  UNL1       -0.3794
     13 H           9.9139   67.8573    1.5003 H       1  UNL1        0.2106
     14 H          10.6580   67.5332   -0.6017 H       1  UNL1        0.2105
     15 N          13.1533   66.9148    3.6712 N.ar    1  UNL1       -0.2551
     16 C          12.9224   65.7976    4.3836 C.ar    1  UNL1        0.3323
     17 N          13.0403   65.7943    5.7246 N.ar    1  UNL1       -0.2743
     18 C          13.3960   66.9193    6.3774 C.ar    1  UNL1        0.2626
     19 C          13.6431   68.1023    5.6401 C.ar    1  UNL1        0.0795
     20 C          13.5215   68.0758    4.2962 C.ar    1  UNL1        0.0869
     21 O          12.6011   64.7758    3.8081 O.2     1  UNL1       -0.2464
     22 O          13.5035   66.9176    7.5911 O.2     1  UNL1       -0.2670
     23 H          12.8690   64.9804    6.2230 H       1  UNL1        0.1734
     24 O          17.7879   69.8602   -2.0204 O.3     1  UNL1       -0.2703
     25 P          18.8178   71.0399   -2.3954 P.3     1  UNL1        0.2208
     26 O          18.4823   72.3451   -1.5136 O.3     1  UNL1       -0.4371
     27 O          20.2005   70.5964   -2.1126 O.2     1  UNL1       -0.5170
     28 O          18.6777   71.3976   -3.9591 O.3     1  UNL1       -0.2865
     29 C          19.4054   70.7153   -4.9820 C.3     1  UNL1        0.2611
     30 C          20.2725   71.7176   -5.7477 C.3     1  UNL1        0.1582
     31 C          19.3663   72.7473   -6.4295 C.3     1  UNL1        0.1625
     32 C          18.3790   72.0166   -7.3437 C.3     1  UNL1        0.1686
     33 C          17.5847   71.0025   -6.5162 C.3     1  UNL1        0.1760
     34 O          20.1632   73.6438   -7.2069 O.3     1  UNL1       -0.3801
     35 O          19.0967   71.3352   -8.3742 O.3     1  UNL1       -0.3794
     36 O          18.4882   70.0935   -5.8844 O.3     1  UNL1       -0.3263
     37 H          19.6533   74.3246   -7.6670 H       1  UNL1        0.2105
     38 H          18.5327   70.8488   -8.9917 H       1  UNL1        0.2105
     39 C          22.4554   72.6263   -5.1587 C.2     1  UNL1        0.2231
     40 C          23.3812   73.3274   -4.1996 C.3     1  UNL1        0.0946
     41 N          21.1725   72.3994   -4.8141 N.am    1  UNL1       -0.2994
     42 O          22.8645   72.2651   -6.2424 O.2     1  UNL1       -0.2751
     43 H          20.8453   72.6871   -3.9473 H       1  UNL1        0.1496
     44 C          16.6378   70.2262   -7.4334 C.3     1  UNL1        0.1693
     45 O          16.4289   70.9649   -8.6388 O.3     1  UNL1       -0.3794
     46 H          15.8372   70.5314   -9.2689 H       1  UNL1        0.2105
@<TRIPOS>BOND
     1    29    30    1
     2    30    41    1
     3    30    31    1
     4    31    34    1
     5    31    32    1
     6    32    35    1
     7    32    33    1
     8    33    36    1
     9    33    44    1
    10    39    40    1
    11    39    42    2
    12    39    41   am
    13    41    43    1
    14    29    28    1
    15    34    37    1
    16    35    38    1
    17    29    36    1
    18    44    45    1
    19    45    46    1
    20    15     6    1
    21    15    16   ar
    22    16    21    2
    23    16    17   ar
    24    17    23    1
    25    17    18   ar
    26    18    19   ar
    27    19    20   ar
    28    15    20   ar
    29    18    22    2
    30     6     7    1
    31     6    11    1
    32     7     9    1
    33     7     8    1
    34     8    13    1
    35     9    10    1
    36     9    12    1
    37    10     5    1
    38    10    11    1
    39    12    14    1
    40     5     4    1
    41     4     1    1
    42     1     2    1
    43     1    24    1
    44     1     3    2
    45    24    25    1
    46    28    25    1
    47    25    26    1
    48    25    27    2
@<TRIPOS>MOLECULE
UD2
 46 48 0 0 0
SMALL
GASTEIGER

@<TRIPOS>ATOM
      1 P          16.0456   71.3940   -2.4443 P.3     1  UNL1        0.2189
      2 O          14.7590   71.9058   -3.2653 O.3     1  UNL1       -0.4371
      3 O          16.8868   72.5527   -2.0718 O.2     1  UNL1       -0.5170
      4 O          15.5625   70.6309   -1.1109 O.3     1  UNL1       -0.3112
      5 C          15.1400   69.2659   -1.1065 C.3     1  UNL1        0.1811
      6 C          12.2708   68.2739    0.8222 C.3     1  UNL1        0.2383
      7 C          12.6447   69.6740    1.3718 C.3     1  UNL1        0.1895
      8 O          11.4836   70.3680    1.8321 O.3     1  UNL1       -0.3779
      9 C          13.2421   70.3653    0.1218 C.3     1  UNL1        0.1713
     10 C          13.6421   69.1970   -0.7995 C.3     1  UNL1        0.1764
     11 O          13.3421   67.9786   -0.1002 O.3     1  UNL1       -0.3308
     12 O          12.2601   71.1879   -0.5105 O.3     1  UNL1       -0.3794
     13 H          11.6661   71.2490    2.1860 H       1  UNL1        0.2106
     14 H          11.9290   71.9052    0.0465 H       1  UNL1        0.2105
     15 N          12.2348   67.2877    1.9044 N.ar    1  UNL1       -0.2551
     16 C          13.3858   66.7946    2.3952 C.ar    1  UNL1        0.3323
     17 N          13.3826   65.8870    3.3895 N.ar    1  UNL1       -0.2743
     18 C          12.2162   65.4577    3.9127 C.ar    1  UNL1        0.2626
     19 C          10.9971   65.9691    3.4064 C.ar    1  UNL1        0.0795
     20 C          11.0302   66.8812    2.4121 C.ar    1  UNL1        0.0869
     21 O          14.4450   67.1728    1.9331 O.2     1  UNL1       -0.2464
     22 O          12.2119   64.6366    4.8129 O.2     1  UNL1       -0.2670
     23 H          14.2215   65.5408    3.7308 H       1  UNL1        0.1734
     24 O          16.9001   70.3826   -3.3609 O.3     1  UNL1       -0.2703
     25 P          18.3499   69.6969   -3.2167 P.3     1  UNL1        0.2208
     26 O          18.9462   70.0064   -1.7530 O.3     1  UNL1       -0.4371
     27 O          18.2243   68.2342   -3.3983 O.2     1  UNL1       -0.5170
     28 O          19.3399   70.2943   -4.3373 O.3     1  UNL1       -0.2865
     29 C          19.3481   71.6725   -4.7138 C.3     1  UNL1        0.2611
     30 C          19.4917   71.7864   -6.2334 C.3     1  UNL1        0.1582
     31 C          20.8330   71.1804   -6.6576 C.3     1  UNL1        0.1625
     32 C          21.9629   71.8962   -5.9125 C.3     1  UNL1        0.1686
     33 C          21.7240   71.7780   -4.4049 C.3     1  UNL1        0.1760
     34 O          21.0083   71.3484   -8.0663 O.3     1  UNL1       -0.3801
     35 O          21.9834   73.2749   -6.2867 O.3     1  UNL1       -0.3794
     36 O          20.4470   72.3321   -4.0817 O.3     1  UNL1       -0.3263
     37 H          21.8386   70.9862   -8.4049 H       1  UNL1        0.2105
     38 H          22.6760   73.7912   -5.8509 H       1  UNL1        0.2105
     39 C          17.3366   71.7330   -7.3693 C.2     1  UNL1        0.2231
     40 C          16.2123   70.9869   -8.0386 C.3     1  UNL1        0.0946
     41 N          18.3984   71.0599   -6.8841 N.am    1  UNL1       -0.2994
     42 O          17.2866   72.9410   -7.2666 O.2     1  UNL1       -0.2751
     43 H          18.4383   70.0940   -6.9650 H       1  UNL1        0.1496
     44 C          22.8165   72.5417   -3.6542 C.3     1  UNL1        0.1693
     45 O          24.0344   72.4881   -4.3999 O.3     1  UNL1       -0.3794
     46 H          24.7726   72.9526   -3.9824 H       1  UNL1        0.2105
@<TRIPOS>BOND
     1    29    30    1
     2    30    41    1
     3    30    31    1
     4    31    34    1
     5    31    32    1
     6    32    35    1
     7    32    33    1
     8    33    36    1
     9    33    44    1
    10    39    40    1
    11    39    42    2
    12    39    41   am
    13    41    43    1
    14    29    28    1
    15    34    37    1
    16    35    38    1
    17    29    36    1
    18    44    45    1
    19    45    46    1
    20    15     6    1
    21    15    16   ar
    22    16    21    2
    23    16    17   ar
    24    17    23    1
    25    17    18   ar
    26    18    19   ar
    27    19    20   ar
    28    15    20   ar
    29    18    22    2
    30     6     7    1
    31     6    11    1
    32     7     9    1
    33     7     8    1
    34     8    13    1
    35     9    10    1
    36     9    12    1
    37    10     5    1
    38    10    11    1
    39    12    14    1
    40     5     4    1
    41     4     1    1
    42     1     2    1
    43     1    24    1
    44     1     3    2
    45    24    25    1
    46    28    25    1
    47    25    26    1
    48    25    27    2
@<TRIPOS>MOLECULE
UD2
 46 48 0 0 0
SMALL
GASTEIGER

@<TRIPOS>ATOM
      1 P          23.5842   73.3191   -3.8308 P.3     1  UNL1        0.2189
      2 O          24.0885   71.8029   -3.6356 O.3     1  UNL1       -0.4371
      3 O          24.7179   74.2471   -3.6249 O.2     1  UNL1       -0.5170
      4 O          23.0035   73.5036   -5.3216 O.3     1  UNL1       -0.3112
      5 C          22.8655   72.4191   -6.2416 C.3     1  UNL1        0.1811
      6 C          19.4152   72.0040   -7.1687 C.3     1  UNL1        0.2383
      7 C          19.4339   73.2887   -6.3019 C.3     1  UNL1        0.1895
      8 O          18.4124   74.1981   -6.7156 O.3     1  UNL1       -0.3779
      9 C          20.8399   73.8634   -6.6026 C.3     1  UNL1        0.1713
     10 C          21.6375   72.6533   -7.1249 C.3     1  UNL1        0.1764
     11 O          20.7687   71.5108   -7.0668 O.3     1  UNL1       -0.3308
     12 O          20.7599   74.8799   -7.6032 O.3     1  UNL1       -0.3794
     13 H          18.3833   75.0172   -6.2028 H       1  UNL1        0.2106
     14 H          20.2198   75.6406   -7.3498 H       1  UNL1        0.2105
     15 N          18.4679   71.0285   -6.6246 N.ar    1  UNL1       -0.2551
     16 C          17.5237   70.4995   -7.4231 C.ar    1  UNL1        0.3323
     17 N          16.6400   69.6011   -6.9498 N.ar    1  UNL1       -0.2743
     18 C          16.6906   69.2144   -5.6589 C.ar    1  UNL1        0.2626
     19 C          17.6800   69.7623   -4.8074 C.ar    1  UNL1        0.0795
     20 C          18.5557   70.6580   -5.3097 C.ar    1  UNL1        0.0869
     21 O          17.4664   70.8388   -8.5892 O.2     1  UNL1       -0.2464
     22 O          15.8916   68.4010   -5.2294 O.2     1  UNL1       -0.2670
     23 H          15.9648   69.2305   -7.5388 H       1  UNL1        0.1734
     24 O          22.4251   73.6415   -2.7604 O.3     1  UNL1       -0.2703
     25 P          22.1384   73.1711   -1.2473 P.3     1  UNL1        0.2208
     26 O          20.5486   73.0875   -1.0039 O.3     1  UNL1       -0.4371
     27 O          22.7421   71.8396   -1.0217 O.2     1  UNL1       -0.5170
     28 O          22.7833   74.2337   -0.2238 O.3     1  UNL1       -0.2865
     29 C          22.7303   74.0783    1.1955 C.3     1  UNL1        0.2611
     30 C          22.7925   72.5906    1.5496 C.3     1  UNL1        0.1582
     31 C          21.5697   71.8823    0.9582 C.3     1  UNL1        0.1625
     32 C          20.2991   72.5525    1.4881 C.3     1  UNL1        0.1686
     33 C          20.3331   74.0421    1.1362 C.3     1  UNL1        0.1760
     34 O          21.5813   70.5065    1.3459 O.3     1  UNL1       -0.3801
     35 O          20.2336   72.3977    2.9069 O.3     1  UNL1       -0.3794
     36 O          21.5100   74.6340    1.6899 O.3     1  UNL1       -0.3263
     37 H          20.8341   69.9960    1.0051 H       1  UNL1        0.2105
     38 H          19.4523   72.8000    3.3114 H       1  UNL1        0.2105
     39 C          24.7050   71.0878    1.6970 C.2     1  UNL1        0.2231
     40 C          25.9612   70.4856    1.1244 C.3     1  UNL1        0.0946
     41 N          24.0145   72.0055    0.9920 N.am    1  UNL1       -0.2994
     42 O          24.3140   70.7467    2.7938 O.2     1  UNL1       -0.2751
     43 H          24.3273   72.2792    0.1155 H       1  UNL1        0.1496
     44 C          19.0953   74.7308    1.7141 C.3     1  UNL1        0.1693
     45 O          19.4361   75.3692    2.9464 O.3     1  UNL1       -0.3794
     46 H          18.6974   75.8271    3.3703 H       1  UNL1        0.2105
@<TRIPOS>BOND
     1    29    30    1
     2    30    41    1
     3    30    31    1
     4    31    34    1
     5    31    32    1
     6    32    35    1
     7    32    33    1
     8    33    36    1
     9    33    44    1
    10    39    40    1
    11    39    42    2
    12    39    41   am
    13    41    43    1
    14    29    28    1
    15    34    37    1
    16    35    38    1
    17    29    36    1
    18    44    45    1
    19    45    46    1
    20    15     6    1
    21    15    16   ar
    22    16    21    2
    23    16    17   ar
    24    17    23    1
    25    17    18   ar
    26    18    19   ar
    27    19    20   ar
    28    15    20   ar
    29    18    22    2
    30     6     7    1
    31     6    11    1
    32     7     9    1
    33     7     8    1
    34     8    13    1
    35     9    10    1
    36     9    12    1
    37    10     5    1
    38    10    11    1
    39    12    14    1
    40     5     4    1
    41     4     1    1
    42     1     2    1
    43     1    24    1
    44     1     3    2
    45    24    25    1
    46    28    25    1
    47    25    26    1
    48    25    27    2
@<TRIPOS>MOLECULE
UD2
 46 48 0 0 0
SMALL
GASTEIGER

@<TRIPOS>ATOM
      1 P          23.1263   71.7198   -2.8938 P.3     1  UNL1        0.2189
      2 O          23.4508   73.1420   -3.5746 O.3     1  UNL1       -0.4371
      3 O          24.3199   70.8495   -2.9751 O.2     1  UNL1       -0.5170
      4 O          22.7287   71.9427   -1.3491 O.3     1  UNL1       -0.3112
      5 C          23.0599   73.1290   -0.6248 C.3     1  UNL1        0.1811
      6 C          24.3339   72.7458    2.7169 C.3     1  UNL1        0.2383
      7 C          23.8408   71.3302    2.3231 C.3     1  UNL1        0.1895
      8 O          24.6215   70.3210    2.9664 O.3     1  UNL1       -0.3779
      9 C          24.0754   71.3182    0.7926 C.3     1  UNL1        0.1713
     10 C          24.1414   72.8091    0.4101 C.3     1  UNL1        0.1764
     11 O          23.9120   73.5686    1.6075 O.3     1  UNL1       -0.3308
     12 O          25.3081   70.6665    0.4819 O.3     1  UNL1       -0.3794
     13 H          24.3510   69.4179    2.7519 H       1  UNL1        0.2106
     14 H          25.3438   69.7399    0.7549 H       1  UNL1        0.2105
     15 N          23.6958   73.1872    3.9591 N.ar    1  UNL1       -0.2551
     16 C          22.4418   72.7912    4.2414 C.ar    1  UNL1        0.3323
     17 N          21.8308   73.1817    5.3755 N.ar    1  UNL1       -0.2743
     18 C          22.4730   73.9802    6.2522 C.ar    1  UNL1        0.2626
     19 C          23.7936   74.4038    5.9683 C.ar    1  UNL1        0.0795
     20 C          24.3834   73.9935    4.8257 C.ar    1  UNL1        0.0869
     21 O          21.8508   72.0710    3.4601 O.2     1  UNL1       -0.2464
     22 O          21.9212   74.3340    7.2793 O.2     1  UNL1       -0.2670
     23 H          20.9259   72.8880    5.5630 H       1  UNL1        0.1734
     24 O          21.8988   71.0216   -3.6677 O.3     1  UNL1       -0.2703
     25 P          20.2978   71.1788   -3.5962 P.3     1  UNL1        0.2208
     26 O          19.7368   70.3761   -2.3176 O.3     1  UNL1       -0.4371
     27 O          19.9474   72.6106   -3.4717 O.2     1  UNL1       -0.5170
     28 O          19.6394   70.5795   -4.9379 O.3     1  UNL1       -0.2865
     29 C          19.0585   71.3995   -5.9534 C.3     1  UNL1        0.2611
     30 C          18.7601   70.5479   -7.1897 C.3     1  UNL1        0.1582
     31 C          20.0741   69.9857   -7.7410 C.3     1  UNL1        0.1625
     32 C          21.0233   71.1464   -8.0509 C.3     1  UNL1        0.1686
     33 C          21.2345   71.9752   -6.7810 C.3     1  UNL1        0.1760
     34 O          19.8132   69.2494   -8.9380 O.3     1  UNL1       -0.3801
     35 O          20.4539   71.9700   -9.0701 O.3     1  UNL1       -0.3794
     36 O          19.9712   72.4420   -6.3033 O.3     1  UNL1       -0.3263
     37 H          20.6026   68.8635   -9.3419 H       1  UNL1        0.2105
     38 H          21.0027   72.7276   -9.3169 H       1  UNL1        0.2105
     39 C          16.6297   69.7004   -6.3648 C.2     1  UNL1        0.2231
     40 C          15.7156   68.5652   -5.9848 C.3     1  UNL1        0.0946
     41 N          17.8717   69.4431   -6.8201 N.am    1  UNL1       -0.2994
     42 O          16.2481   70.8475   -6.2610 O.2     1  UNL1       -0.2751
     43 H          18.1776   68.5262   -6.9023 H       1  UNL1        0.1496
     44 C          22.1344   73.1713   -7.0967 C.3     1  UNL1        0.1693
     45 O          21.3591   74.2026   -7.7114 O.3     1  UNL1       -0.3794
     46 H          21.8663   74.9936   -7.9396 H       1  UNL1        0.2105
@<TRIPOS>BOND
     1    29    30    1
     2    30    41    1
     3    30    31    1
     4    31    34    1
     5    31    32    1
     6    32    35    1
     7    32    33    1
     8    33    36    1
     9    33    44    1
    10    39    40    1
    11    39    42    2
    12    39    41   am
    13    41    43    1
    14    29    28    1
    15    34    37    1
    16    35    38    1
    17    29    36    1
    18    44    45    1
    19    45    46    1
    20    15     6    1
    21    15    16   ar
    22    16    21    2
    23    16    17   ar
    24    17    23    1
    25    17    18   ar
    26    18    19   ar
    27    19    20   ar
    28    15    20   ar
    29    18    22    2
    30     6     7    1
    31     6    11    1
    32     7     9    1
    33     7     8    1
    34     8    13    1
    35     9    10    1
    36     9    12    1
    37    10     5    1
    38    10    11    1
    39    12    14    1
    40     5     4    1
    41     4     1    1
    42     1     2    1
    43     1    24    1
    44     1     3    2
    45    24    25    1
    46    28    25    1
    47    25    26    1
    48    25    27    2
@<TRIPOS>MOLECULE
UD2
 46 48 0 0 0
SMALL
GASTEIGER

@<TRIPOS>ATOM
      1 P          16.7749   72.5863   -2.9150 P.3     1  UNL1        0.2189
      2 O          15.5250   73.3550   -3.5769 O.3     1  UNL1       -0.4371
      3 O          17.8450   73.5594   -2.6042 O.2     1  UNL1       -0.5170
      4 O          16.3002   71.8590   -1.5587 O.3     1  UNL1       -0.3112
      5 C          16.1921   70.4397   -1.4347 C.3     1  UNL1        0.1811
      6 C          13.1856   68.7747   -0.3741 C.3     1  UNL1        0.2383
      7 C          13.0621   70.2076    0.2036 C.3     1  UNL1        0.1895
      8 O          11.6931   70.6094    0.2828 O.3     1  UNL1       -0.3779
      9 C          13.8249   71.0494   -0.8485 C.3     1  UNL1        0.1713
     10 C          14.7243   70.0267   -1.5687 C.3     1  UNL1        0.1764
     11 O          14.5153   68.7535   -0.9372 O.3     1  UNL1       -0.3308
     12 O          12.9096   71.6464   -1.7686 O.3     1  UNL1       -0.3794
     13 H          11.5640   71.4989    0.6388 H       1  UNL1        0.2106
     14 H          12.2802   72.2553   -1.3592 H       1  UNL1        0.2105
     15 N          13.0598   67.7767    0.6905 N.ar    1  UNL1       -0.2551
     16 C          12.1137   66.8248    0.6031 C.ar    1  UNL1        0.3323
     17 N          11.9753   65.8951    1.5668 N.ar    1  UNL1       -0.2743
     18 C          12.7908   65.9042    2.6408 C.ar    1  UNL1        0.2626
     19 C          13.7917   66.8999    2.7452 C.ar    1  UNL1        0.0795
     20 C          13.9106   67.8170    1.7622 C.ar    1  UNL1        0.0869
     21 O          11.3715   66.8044   -0.3597 O.2     1  UNL1       -0.2464
     22 O          12.6668   65.0631    3.5136 O.2     1  UNL1       -0.2670
     23 H          11.2871   65.2166    1.4887 H       1  UNL1        0.1734
     24 O          17.3346   71.4837   -3.9466 O.3     1  UNL1       -0.2703
     25 P          18.6794   70.6008   -4.0183 P.3     1  UNL1        0.2208
     26 O          19.4425   70.6702   -2.6018 O.3     1  UNL1       -0.4371
     27 O          18.3315   69.1954   -4.3222 O.2     1  UNL1       -0.5170
     28 O          19.6396   71.1785   -5.1746 O.3     1  UNL1       -0.2865
     29 C          19.8259   72.5761   -5.4056 C.3     1  UNL1        0.2611
     30 C          20.2361   72.8031   -6.8626 C.3     1  UNL1        0.1582
     31 C          21.5755   72.1063   -7.1215 C.3     1  UNL1        0.1625
     32 C          22.6166   72.6423   -6.1350 C.3     1  UNL1        0.1686
     33 C          22.1145   72.4213   -4.7057 C.3     1  UNL1        0.1760
     34 O          22.0023   72.3745   -8.4590 O.3     1  UNL1       -0.3801
     35 O          22.8147   74.0390   -6.3616 O.3     1  UNL1       -0.3794
     36 O          20.8514   73.0688   -4.5408 O.3     1  UNL1       -0.3263
     37 H          22.8454   71.9624   -8.6925 H       1  UNL1        0.2105
     38 H          23.4628   74.4461   -5.7699 H       1  UNL1        0.2105
     39 C          19.3470   70.9916   -8.2285 C.2     1  UNL1        0.2231
     40 C          18.2964   70.4169   -9.1421 C.3     1  UNL1        0.0946
     41 N          19.2139   72.2449   -7.7514 N.am    1  UNL1       -0.2994
     42 O          20.3140   70.3261   -7.9215 O.2     1  UNL1       -0.2751
     43 H          18.4414   72.7777   -7.9974 H       1  UNL1        0.1496
     44 C          23.1219   73.0080   -3.7151 C.3     1  UNL1        0.1693
     45 O          24.4499   72.7310   -4.1647 O.3     1  UNL1       -0.3794
     46 H          25.1422   73.0745   -3.5835 H       1  UNL1        0.2105
@<TRIPOS>BOND
     1    29    30    1
     2    30    41    1
     3    30    31    1
     4    31    34    1
     5    31    32    1
     6    32    35    1
     7    32    33    1
     8    33    36    1
     9    33    44    1
    10    39    40    1
    11    39    42    2
    12    39    41   am
    13    41    43    1
    14    29    28    1
    15    34    37    1
    16    35    38    1
    17    29    36    1
    18    44    45    1
    19    45    46    1
    20    15     6    1
    21    15    16   ar
    22    16    21    2
    23    16    17   ar
    24    17    23    1
    25    17    18   ar
    26    18    19   ar
    27    19    20   ar
    28    15    20   ar
    29    18    22    2
    30     6     7    1
    31     6    11    1
    32     7     9    1
    33     7     8    1
    34     8    13    1
    35     9    10    1
    36     9    12    1
    37    10     5    1
    38    10    11    1
    39    12    14    1
    40     5     4    1
    41     4     1    1
    42     1     2    1
    43     1    24    1
    44     1     3    2
    45    24    25    1
    46    28    25    1
    47    25    26    1
    48    25    27    2
