@<TRIPOS>MOLECULE
UDP-glaA
 43 45 0 0 0
SMALL
GASTEIGER

@<TRIPOS>ATOM
      1 P          21.8366   73.7434   -5.8081 P.3     1  UNL1        0.2189
      2 O          21.5858   75.2257   -6.4059 O.3     1  UNL1       -0.4371
      3 O          22.7330   72.8701   -6.6364 O.2     1  UNL1       -0.5170
      4 O          20.3467   73.1722   -5.5446 O.3     1  UNL1       -0.3112
      5 C          19.6009   73.6995   -4.4606 C.3     1  UNL1        0.1811
      6 O          17.8895   72.1186   -5.0490 O.3     1  UNL1       -0.3308
      7 O          18.5003   70.7700   -2.4414 O.3     1  UNL1       -0.3794
      8 O          19.8106   69.1999   -4.2451 O.3     1  UNL1       -0.3779
      9 C          19.3872   71.4207   -3.3512 C.3     1  UNL1        0.1713
     10 C          19.6089   70.5584   -4.5758 C.3     1  UNL1        0.1895
     11 C          18.6599   72.6242   -3.9363 C.3     1  UNL1        0.1764
     12 C          18.3264   70.7848   -5.3580 C.3     1  UNL1        0.2383
     13 H          18.3575   71.3747   -1.6934 H       1  UNL1        0.2105
     14 H          20.5838   69.1535   -3.6567 H       1  UNL1        0.2106
     15 O          16.2499   70.3739   -7.2274 O.2     1  UNL1       -0.2464
     16 O          19.1944   70.3721  -10.7726 O.2     1  UNL1       -0.2670
     17 N          18.5217   70.6738   -6.7753 N.ar    1  UNL1       -0.2551
     18 N          17.7176   70.3727   -8.9915 N.ar    1  UNL1       -0.2743
     19 C          17.4118   70.4670   -7.6274 C.ar    1  UNL1        0.3323
     20 C          19.8025   70.7695   -7.3081 C.ar    1  UNL1        0.0869
     21 C          20.0776   70.6780   -8.6110 C.ar    1  UNL1        0.0795
     22 C          18.9750   70.4612   -9.5685 C.ar    1  UNL1        0.2626
     23 H          16.9352   70.2235   -9.6229 H       1  UNL1        0.1734
     24 O          22.3803   74.0423   -4.3147 O.3     1  UNL1       -0.2703
     25 P          23.4366   73.2404   -3.3906 P.3     1  UNL1        0.2208
     26 O          24.8417   73.9748   -3.7105 O.3     1  UNL1       -0.4371
     27 O          23.4480   71.7554   -3.6149 O.2     1  UNL1       -0.5170
     28 O          23.0783   73.6839   -1.8810 O.3     1  UNL1       -0.2858
     29 O          21.7598   71.9425   -0.9709 O.3     1  UNL1       -0.3226
     30 O          22.0662   74.5698    2.2358 O.3     1  UNL1       -0.3794
     31 O          21.6467   75.5761   -0.4693 O.3     1  UNL1       -0.3775
     32 O          21.1106   72.0110    1.8242 O.3     1  UNL1       -0.3792
     33 C          22.4538   73.8669    1.0584 C.3     1  UNL1        0.1718
     34 C          21.5121   74.2073   -0.1016 C.3     1  UNL1        0.1968
     35 C          22.4120   72.3631    1.3431 C.3     1  UNL1        0.1723
     36 C          21.8142   73.3290   -1.3221 C.3     1  UNL1        0.2706
     37 C          22.6858   71.5892    0.0554 C.3     1  UNL1        0.1830
     38 H          22.6867   74.3227    2.9426 H       1  UNL1        0.2105
     39 H          21.0404   75.7417   -1.2108 H       1  UNL1        0.2106
     40 H          20.4890   72.0318    1.0770 H       1  UNL1        0.2106
     41 O          23.7175   69.4832    0.1216 O.co2   1  UNL1       -0.5466
     42 O          21.4731   69.5526    0.5152 O.co2   1  UNL1       -0.5466
     43 C          22.5272   70.1158    0.2582 C.2     1  UNL1        0.0799
@<TRIPOS>UNITY_ATOM_ATTR
41 1
charge -1
@<TRIPOS>BOND
     1     1     4    1
     2     1    24    1
     3     1     2    1
     4     1     3    2
     5    25    28    1
     6    25    24    1
     7    25    26    1
     8    25    27    2
     9     6    11    1
    10     6    12    1
    11    29    36    1
    12    29    37    1
    13     7     9    1
    14     7    13    1
    15     8    10    1
    16     8    14    1
    17     4     5    1
    18    28    36    1
    19    30    33    1
    20    30    38    1
    21    31    34    1
    22    31    39    1
    23    32    35    1
    24    32    40    1
    25    41    43   ar
    26    15    19    2
    27    42    43   ar
    28    16    22    2
    29    17    12    1
    30    17    19   ar
    31    17    20   ar
    32    18    19   ar
    33    18    22   ar
    34    18    23    1
    35     9    10    1
    36     9    11    1
    37    10    12    1
    38    11     5    1
    39    33    34    1
    40    33    35    1
    41    34    36    1
    42    35    37    1
    43    37    43    1
    44    20    21   ar
    45    21    22   ar
@<TRIPOS>MOLECULE
UDP-glaA
 43 45 0 0 0
SMALL
GASTEIGER

@<TRIPOS>ATOM
      1 P          23.0012   71.9398   -3.3501 P.3     1  UNL1        0.2189
      2 O          23.7828   72.9313   -4.3618 O.3     1  UNL1       -0.4371
      3 O          23.6644   70.6123   -3.1266 O.2     1  UNL1       -0.5170
      4 O          21.4978   71.8835   -3.9436 O.3     1  UNL1       -0.3112
      5 C          20.6582   70.8076   -3.5605 C.3     1  UNL1        0.1811
      6 O          18.8347   71.9172   -4.6641 O.3     1  UNL1       -0.3308
      7 O          17.0895   70.8031   -2.4952 O.3     1  UNL1       -0.3794
      8 O          16.6059   69.1099   -4.5772 O.3     1  UNL1       -0.3779
      9 C          18.2217   70.2146   -3.1351 C.3     1  UNL1        0.1713
     10 C          17.8582   69.7622   -4.5336 C.3     1  UNL1        0.1895
     11 C          19.2328   71.3198   -3.4104 C.3     1  UNL1        0.1764
     12 C          17.8605   71.0737   -5.3004 C.3     1  UNL1        0.2383
     13 H          17.3795   71.1121   -1.6200 H       1  UNL1        0.2105
     14 H          16.6532   68.3451   -3.9781 H       1  UNL1        0.2106
     15 O          16.0302   70.4648   -7.3630 O.2     1  UNL1       -0.2464
     16 O          19.3550   70.4360  -10.5541 O.2     1  UNL1       -0.2670
     17 N          18.2202   70.9022   -6.6789 N.ar    1  UNL1       -0.2551
     18 N          17.6871   70.4504   -8.9506 N.ar    1  UNL1       -0.2743
     19 C          17.2246   70.5969   -7.6362 C.ar    1  UNL1        0.3323
     20 C          19.5475   71.0363   -7.0708 C.ar    1  UNL1        0.0869
     21 C          19.9725   70.8941   -8.3282 C.ar    1  UNL1        0.0795
     22 C          18.9965   70.5739   -9.3886 C.ar    1  UNL1        0.2626
     23 H          16.9889   70.2301   -9.6557 H       1  UNL1        0.1734
     24 O          22.8321   72.8411   -2.0180 O.3     1  UNL1       -0.2703
     25 P          22.2707   74.3436   -1.8187 P.3     1  UNL1        0.2208
     26 O          20.7566   74.2515   -2.3800 O.3     1  UNL1       -0.4371
     27 O          23.1095   75.4060   -2.4694 O.2     1  UNL1       -0.5170
     28 O          22.1050   74.5098   -0.2221 O.3     1  UNL1       -0.2858
     29 O          21.1161   72.4532    0.4038 O.3     1  UNL1       -0.3226
     30 O          21.9314   74.1863    4.0932 O.3     1  UNL1       -0.3794
     31 O          20.8909   75.7981    1.8965 O.3     1  UNL1       -0.3775
     32 O          21.0677   71.7265    3.1802 O.3     1  UNL1       -0.3792
     33 C          22.1041   73.8587    2.7172 C.3     1  UNL1        0.1718
     34 C          20.9202   74.3748    1.8924 C.3     1  UNL1        0.1968
     35 C          22.2146   72.3377    2.5803 C.3     1  UNL1        0.1723
     36 C          21.0110   73.8802    0.4434 C.3     1  UNL1        0.2706
     37 C          22.2573   71.9573    1.1019 C.3     1  UNL1        0.1830
     38 H          22.7007   73.8391    4.5761 H       1  UNL1        0.2105
     39 H          20.1331   76.0776    1.3558 H       1  UNL1        0.2106
     40 H          20.3025   71.8667    2.5971 H       1  UNL1        0.2106
     41 O          23.2093   69.8851    1.6528 O.co2   1  UNL1       -0.5466
     42 O          21.4468   69.8664    0.2070 O.co2   1  UNL1       -0.5466
     43 C          22.2347   70.4732    0.9179 C.2     1  UNL1        0.0799
@<TRIPOS>UNITY_ATOM_ATTR
41 1
charge -1
@<TRIPOS>BOND
     1     1     4    1
     2     1    24    1
     3     1     2    1
     4     1     3    2
     5    25    28    1
     6    25    24    1
     7    25    26    1
     8    25    27    2
     9     6    11    1
    10     6    12    1
    11    29    36    1
    12    29    37    1
    13     7     9    1
    14     7    13    1
    15     8    10    1
    16     8    14    1
    17     4     5    1
    18    28    36    1
    19    30    33    1
    20    30    38    1
    21    31    34    1
    22    31    39    1
    23    32    35    1
    24    32    40    1
    25    41    43   ar
    26    15    19    2
    27    42    43   ar
    28    16    22    2
    29    17    12    1
    30    17    19   ar
    31    17    20   ar
    32    18    19   ar
    33    18    22   ar
    34    18    23    1
    35     9    10    1
    36     9    11    1
    37    10    12    1
    38    11     5    1
    39    33    34    1
    40    33    35    1
    41    34    36    1
    42    35    37    1
    43    37    43    1
    44    20    21   ar
    45    21    22   ar
@<TRIPOS>MOLECULE
UDP-glaA
 43 45 0 0 0
SMALL
GASTEIGER

@<TRIPOS>ATOM
      1 P          23.0091   72.1071   -3.4231 P.3     1  UNL1        0.2189
      2 O          24.1675   73.1388   -3.8822 O.3     1  UNL1       -0.4371
      3 O          23.4644   70.6906   -3.2270 O.2     1  UNL1       -0.5170
      4 O          21.8381   72.3239   -4.5172 O.3     1  UNL1       -0.3112
      5 C          21.7145   73.5939   -5.1346 C.3     1  UNL1        0.1811
      6 O          21.5186   72.2593   -7.1232 O.3     1  UNL1       -0.3308
      7 O          22.3824   74.7064   -8.6255 O.3     1  UNL1       -0.3794
      8 O          19.6823   74.6958   -9.0066 O.3     1  UNL1       -0.3779
      9 C          21.5591   74.6034   -7.4639 C.3     1  UNL1        0.1713
     10 C          20.1866   74.0842   -7.8373 C.3     1  UNL1        0.1895
     11 C          22.1036   73.4726   -6.6010 C.3     1  UNL1        0.1764
     12 C          20.4501   72.5995   -8.0221 C.3     1  UNL1        0.2383
     13 H          23.2605   75.0043   -8.3328 H       1  UNL1        0.2105
     14 H          19.6464   75.6541   -8.8435 H       1  UNL1        0.2106
     15 O          18.5646   71.7020   -9.9233 O.2     1  UNL1       -0.2464
     16 O          16.0855   69.5234   -6.7067 O.2     1  UNL1       -0.2670
     17 N          19.3030   71.7960   -7.7094 N.ar    1  UNL1       -0.2551
     18 N          17.3311   70.6182   -8.3202 N.ar    1  UNL1       -0.2743
     19 C          18.4168   71.3990   -8.7379 C.ar    1  UNL1        0.3323
     20 C          19.0648   71.4096   -6.3951 C.ar    1  UNL1        0.0869
     21 C          18.0253   70.6645   -6.0129 C.ar    1  UNL1        0.0795
     22 C          17.0521   70.2090   -7.0254 C.ar    1  UNL1        0.2626
     23 H          16.6805   70.3217   -9.0427 H       1  UNL1        0.1734
     24 O          22.4028   72.8091   -2.0984 O.3     1  UNL1       -0.2703
     25 P          22.2402   74.3684   -1.7048 P.3     1  UNL1        0.2208
     26 O          20.7523   74.7295   -2.2262 O.3     1  UNL1       -0.4371
     27 O          23.3210   75.2573   -2.2503 O.2     1  UNL1       -0.5170
     28 O          22.1216   74.3737   -0.0955 O.3     1  UNL1       -0.2858
     29 O          21.3025   72.2658    0.6009 O.3     1  UNL1       -0.3226
     30 O          21.6604   74.2969    4.2101 O.3     1  UNL1       -0.3794
     31 O          20.6285   75.6526    1.8430 O.3     1  UNL1       -0.3775
     32 O          21.1212   71.7084    3.4107 O.3     1  UNL1       -0.3792
     33 C          21.9675   73.9064    2.8746 C.3     1  UNL1        0.1718
     34 C          20.8022   74.2428    1.9380 C.3     1  UNL1        0.1968
     35 C          22.2417   72.4002    2.8497 C.3     1  UNL1        0.1723
     36 C          21.0505   73.6733    0.5357 C.3     1  UNL1        0.2706
     37 C          22.4329   71.9371    1.4070 C.3     1  UNL1        0.1830
     38 H          22.4228   74.0633    4.7667 H       1  UNL1        0.2105
     39 H          19.8886   75.8167    1.2343 H       1  UNL1        0.2106
     40 H          20.3913   71.7309    2.7689 H       1  UNL1        0.2106
     41 O          21.5071   69.9026    0.6948 O.co2   1  UNL1       -0.5466
     42 O          23.5218   69.8108    1.7577 O.co2   1  UNL1       -0.5466
     43 C          22.5747   70.4506    1.3237 C.2     1  UNL1        0.0799
@<TRIPOS>UNITY_ATOM_ATTR
41 1
charge -1
@<TRIPOS>BOND
     1     1     4    1
     2     1    24    1
     3     1     2    1
     4     1     3    2
     5    25    28    1
     6    25    24    1
     7    25    26    1
     8    25    27    2
     9     6    11    1
    10     6    12    1
    11    29    36    1
    12    29    37    1
    13     7     9    1
    14     7    13    1
    15     8    10    1
    16     8    14    1
    17     4     5    1
    18    28    36    1
    19    30    33    1
    20    30    38    1
    21    31    34    1
    22    31    39    1
    23    32    35    1
    24    32    40    1
    25    41    43   ar
    26    15    19    2
    27    42    43   ar
    28    16    22    2
    29    17    12    1
    30    17    19   ar
    31    17    20   ar
    32    18    19   ar
    33    18    22   ar
    34    18    23    1
    35     9    10    1
    36     9    11    1
    37    10    12    1
    38    11     5    1
    39    33    34    1
    40    33    35    1
    41    34    36    1
    42    35    37    1
    43    37    43    1
    44    20    21   ar
    45    21    22   ar
@<TRIPOS>MOLECULE
UDP-glaA
 43 45 0 0 0
SMALL
GASTEIGER

@<TRIPOS>ATOM
      1 P          21.9436   74.3769   -5.5234 P.3     1  UNL1        0.2189
      2 O          20.7070   75.2918   -5.0223 O.3     1  UNL1       -0.4371
      3 O          23.2579   75.0931   -5.6314 O.2     1  UNL1       -0.5170
      4 O          21.3988   73.6982   -6.8866 O.3     1  UNL1       -0.3112
      5 C          20.0817   74.0005   -7.3145 C.3     1  UNL1        0.1811
      6 O          19.7424   71.6735   -7.8088 O.3     1  UNL1       -0.3308
      7 O          18.1011   72.6006  -10.1407 O.3     1  UNL1       -0.3794
      8 O          16.2005   71.9287   -8.3044 O.3     1  UNL1       -0.3779
      9 C          18.2214   73.1706   -8.8375 C.3     1  UNL1        0.1713
     10 C          17.4667   72.3334   -7.8265 C.3     1  UNL1        0.1895
     11 C          19.6641   72.9979   -8.3808 C.3     1  UNL1        0.1764
     12 C          18.4127   71.1635   -7.6160 C.3     1  UNL1        0.2383
     13 H          18.6310   73.1469  -10.7460 H       1  UNL1        0.2105
     14 H          15.6972   72.7333   -8.5175 H       1  UNL1        0.2106
     15 O          16.2647   69.5657   -6.7170 O.2     1  UNL1       -0.2464
     16 O          18.1329   69.0871   -2.5314 O.2     1  UNL1       -0.2670
     17 N          18.3123   70.6078   -6.2968 N.ar    1  UNL1       -0.2551
     18 N          17.1962   69.3289   -4.6332 N.ar    1  UNL1       -0.2743
     19 C          17.1915   69.8195   -5.9456 C.ar    1  UNL1        0.3323
     20 C          19.3176   70.8457   -5.3660 C.ar    1  UNL1        0.0869
     21 C          19.3076   70.3703   -4.1187 C.ar    1  UNL1        0.0795
     22 C          18.1726   69.5388   -3.6718 C.ar    1  UNL1        0.2626
     23 H          16.3999   68.7601   -4.3584 H       1  UNL1        0.1734
     24 O          21.9316   73.1458   -4.4749 O.3     1  UNL1       -0.2703
     25 P          23.0772   72.5898   -3.4794 P.3     1  UNL1        0.2208
     26 O          24.3938   73.4129   -3.9323 O.3     1  UNL1       -0.4371
     27 O          23.2411   71.0970   -3.5016 O.2     1  UNL1       -0.5170
     28 O          22.6931   73.1968   -2.0344 O.3     1  UNL1       -0.2858
     29 O          21.6792   71.4645   -0.7812 O.3     1  UNL1       -0.3226
     30 O          21.5805   74.6460    1.8923 O.3     1  UNL1       -0.3794
     31 O          20.9851   75.0649   -0.9318 O.3     1  UNL1       -0.3775
     32 O          21.0474   71.9370    1.9785 O.3     1  UNL1       -0.3792
     33 C          22.0681   73.8106    0.8460 C.3     1  UNL1        0.1718
     34 C          21.0756   73.7819   -0.3213 C.3     1  UNL1        0.1968
     35 C          22.2714   72.3961    1.3956 C.3     1  UNL1        0.1723
     36 C          21.5068   72.7551   -1.3758 C.3     1  UNL1        0.2706
     37 C          22.6574   71.4538    0.2574 C.3     1  UNL1        0.1830
     38 H          22.2377   74.6323    2.6089 H       1  UNL1        0.2105
     39 H          20.3547   74.9954   -1.6685 H       1  UNL1        0.2106
     40 H          20.4253   71.7235    1.2626 H       1  UNL1        0.2106
     41 O          23.3685   69.9629    1.9233 O.co2   1  UNL1       -0.5466
     42 O          22.3005   69.0699    0.1180 O.co2   1  UNL1       -0.5466
     43 C          22.7399   70.0357    0.7253 C.2     1  UNL1        0.0799
@<TRIPOS>UNITY_ATOM_ATTR
41 1
charge -1
@<TRIPOS>BOND
     1     1     4    1
     2     1    24    1
     3     1     2    1
     4     1     3    2
     5    25    28    1
     6    25    24    1
     7    25    26    1
     8    25    27    2
     9     6    11    1
    10     6    12    1
    11    29    36    1
    12    29    37    1
    13     7     9    1
    14     7    13    1
    15     8    10    1
    16     8    14    1
    17     4     5    1
    18    28    36    1
    19    30    33    1
    20    30    38    1
    21    31    34    1
    22    31    39    1
    23    32    35    1
    24    32    40    1
    25    41    43   ar
    26    15    19    2
    27    42    43   ar
    28    16    22    2
    29    17    12    1
    30    17    19   ar
    31    17    20   ar
    32    18    19   ar
    33    18    22   ar
    34    18    23    1
    35     9    10    1
    36     9    11    1
    37    10    12    1
    38    11     5    1
    39    33    34    1
    40    33    35    1
    41    34    36    1
    42    35    37    1
    43    37    43    1
    44    20    21   ar
    45    21    22   ar
@<TRIPOS>MOLECULE
UDP-glaA
 43 45 0 0 0
SMALL
GASTEIGER

@<TRIPOS>ATOM
      1 P          23.0086   72.0199   -3.3055 P.3     1  UNL1        0.2189
      2 O          23.7962   72.9328   -4.3842 O.3     1  UNL1       -0.4371
      3 O          23.5970   70.6580   -3.0793 O.2     1  UNL1       -0.5170
      4 O          21.4749   72.0468   -3.8179 O.3     1  UNL1       -0.3112
      5 C          20.6483   70.9292   -3.5405 C.3     1  UNL1        0.1811
      6 O          18.7987   71.9742   -4.6635 O.3     1  UNL1       -0.3308
      7 O          17.0755   70.8274   -2.4940 O.3     1  UNL1       -0.3794
      8 O          16.6542   69.1025   -4.5635 O.3     1  UNL1       -0.3779
      9 C          18.2283   70.2674   -3.1227 C.3     1  UNL1        0.1713
     10 C          17.8862   69.7922   -4.5191 C.3     1  UNL1        0.1895
     11 C          19.2075   71.3999   -3.4025 C.3     1  UNL1        0.1764
     12 C          17.8536   71.0965   -5.2974 C.3     1  UNL1        0.2383
     13 H          17.3513   71.1526   -1.6200 H       1  UNL1        0.2105
     14 H          16.7210   68.3447   -3.9573 H       1  UNL1        0.2106
     15 O          16.0524   70.4230   -7.3655 O.2     1  UNL1       -0.2464
     16 O          19.3957   70.4577  -10.5372 O.2     1  UNL1       -0.2670
     17 N          18.2259   70.9238   -6.6724 N.ar    1  UNL1       -0.2551
     18 N          17.7185   70.4402   -8.9435 N.ar    1  UNL1       -0.2743
     19 C          17.2445   70.5847   -7.6329 C.ar    1  UNL1        0.3323
     20 C          19.5515   71.0901   -7.0578 C.ar    1  UNL1        0.0869
     21 C          19.9876   70.9494   -8.3115 C.ar    1  UNL1        0.0795
     22 C          19.0268   70.5951   -9.3749 C.ar    1  UNL1        0.2626
     23 H          17.0305   70.1959   -9.6507 H       1  UNL1        0.1734
     24 O          22.9694   72.9631   -1.9925 O.3     1  UNL1       -0.2703
     25 P          22.2964   72.7326   -0.5411 P.3     1  UNL1        0.2208
     26 O          22.6082   71.1762   -0.2305 O.3     1  UNL1       -0.4371
     27 O          20.8416   73.0993   -0.4715 O.2     1  UNL1       -0.5170
     28 O          23.2396   73.5501    0.4816 O.3     1  UNL1       -0.2858
     29 O          22.0182   74.2436    2.3859 O.3     1  UNL1       -0.3226
     30 O          25.7139   76.0374    3.0209 O.3     1  UNL1       -0.3794
     31 O          24.5292   75.9882    0.3564 O.3     1  UNL1       -0.3775
     32 O          23.3843   75.6804    4.4615 O.3     1  UNL1       -0.3792
     33 C          24.7752   75.0568    2.5877 C.3     1  UNL1        0.1718
     34 C          23.8224   75.6527    1.5459 C.3     1  UNL1        0.1968
     35 C          23.9822   74.5608    3.7998 C.3     1  UNL1        0.1723
     36 C          22.7050   74.6603    1.2012 C.3     1  UNL1        0.2706
     37 C          22.8758   73.6151    3.3373 C.3     1  UNL1        0.1830
     38 H          26.2934   75.6179    3.6796 H       1  UNL1        0.2105
     39 H          23.8854   76.3514   -0.2748 H       1  UNL1        0.2106
     40 H          22.6388   75.9955    3.9229 H       1  UNL1        0.2106
     41 O          20.7037   73.1172    4.0706 O.co2   1  UNL1       -0.5466
     42 O          22.3769   72.9807    5.6129 O.co2   1  UNL1       -0.5466
     43 C          21.9939   73.2071    4.4742 C.2     1  UNL1        0.0799
@<TRIPOS>UNITY_ATOM_ATTR
41 1
charge -1
@<TRIPOS>BOND
     1     1     4    1
     2     1    24    1
     3     1     2    1
     4     1     3    2
     5    25    28    1
     6    25    24    1
     7    25    26    1
     8    25    27    2
     9     6    11    1
    10     6    12    1
    11    29    36    1
    12    29    37    1
    13     7     9    1
    14     7    13    1
    15     8    10    1
    16     8    14    1
    17     4     5    1
    18    28    36    1
    19    30    33    1
    20    30    38    1
    21    31    34    1
    22    31    39    1
    23    32    35    1
    24    32    40    1
    25    41    43   ar
    26    15    19    2
    27    42    43   ar
    28    16    22    2
    29    17    12    1
    30    17    19   ar
    31    17    20   ar
    32    18    19   ar
    33    18    22   ar
    34    18    23    1
    35     9    10    1
    36     9    11    1
    37    10    12    1
    38    11     5    1
    39    33    34    1
    40    33    35    1
    41    34    36    1
    42    35    37    1
    43    37    43    1
    44    20    21   ar
    45    21    22   ar
@<TRIPOS>MOLECULE
UDP-glaA
 43 45 0 0 0
SMALL
GASTEIGER

@<TRIPOS>ATOM
      1 P          22.3597   71.2687   -2.6877 P.3     1  UNL1        0.2189
      2 O          23.5096   72.0006   -3.5591 O.3     1  UNL1       -0.4371
      3 O          22.0256   69.8728   -3.1259 O.2     1  UNL1       -0.5170
      4 O          21.1323   72.3217   -2.6994 O.3     1  UNL1       -0.3112
      5 C          20.4234   72.5225   -3.9103 C.3     1  UNL1        0.1811
      6 O          18.2548   72.3633   -4.9332 O.3     1  UNL1       -0.3308
      7 O          17.3979   70.9121   -2.4531 O.3     1  UNL1       -0.3794
      8 O          17.7848   68.8792   -4.2289 O.3     1  UNL1       -0.3779
      9 C          18.6506   70.8710   -3.1363 C.3     1  UNL1        0.1713
     10 C          18.5261   70.0675   -4.4135 C.3     1  UNL1        0.1895
     11 C          18.9426   72.2687   -3.6663 C.3     1  UNL1        0.1764
     12 C          17.8312   71.0514   -5.3392 C.3     1  UNL1        0.2383
     13 H          17.5161   71.4683   -1.6643 H       1  UNL1        0.2105
     14 H          18.2367   68.3556   -3.5449 H       1  UNL1        0.2106
     15 O          15.9719   70.5629   -7.4079 O.2     1  UNL1       -0.2464
     16 O          19.2997   70.2983  -10.5850 O.2     1  UNL1       -0.2670
     17 N          18.1839   70.8518   -6.7158 N.ar    1  UNL1       -0.2551
     18 N          17.6303   70.4310   -8.9885 N.ar    1  UNL1       -0.2743
     19 C          17.1736   70.6124   -7.6764 C.ar    1  UNL1        0.3323
     20 C          19.5188   70.8940   -7.1025 C.ar    1  UNL1        0.0869
     21 C          19.9382   70.7195   -8.3577 C.ar    1  UNL1        0.0795
     22 C          18.9468   70.4636   -9.4214 C.ar    1  UNL1        0.2626
     23 H          16.9214   70.2569   -9.6959 H       1  UNL1        0.1734
     24 O          22.9224   71.3836   -1.1760 O.3     1  UNL1       -0.2703
     25 P          22.4989   70.6039    0.1751 P.3     1  UNL1        0.2208
     26 O          23.7173   69.5643    0.4009 O.3     1  UNL1       -0.4371
     27 O          21.1411   69.9646    0.1175 O.2     1  UNL1       -0.5170
     28 O          22.6718   71.6971    1.3494 O.3     1  UNL1       -0.2858
     29 O          21.8780   72.3932    3.4671 O.3     1  UNL1       -0.3226
     30 O          21.0731   75.7144    1.1004 O.3     1  UNL1       -0.3794
     31 O          20.6071   73.0215    0.0821 O.3     1  UNL1       -0.3775
     32 O          20.9927   75.1040    3.7932 O.3     1  UNL1       -0.3792
     33 C          21.7617   74.5584    1.5693 C.3     1  UNL1        0.1718
     34 C          20.8683   73.3191    1.4497 C.3     1  UNL1        0.1968
     35 C          22.1598   74.7781    3.0313 C.3     1  UNL1        0.1723
     36 C          21.5339   72.1042    2.1080 C.3     1  UNL1        0.2706
     37 C          22.7724   73.4975    3.5944 C.3     1  UNL1        0.1830
     38 H          21.6738   76.4730    1.1969 H       1  UNL1        0.2105
     39 H          20.0480   72.2268    0.0564 H       1  UNL1        0.2106
     40 H          20.4641   74.2963    3.9094 H       1  UNL1        0.2106
     41 O          24.2760   74.1816    5.2602 O.co2   1  UNL1       -0.5466
     42 O          22.3003   73.2790    5.9521 O.co2   1  UNL1       -0.5466
     43 C          23.0578   73.6246    5.0570 C.2     1  UNL1        0.0799
@<TRIPOS>UNITY_ATOM_ATTR
41 1
charge -1
@<TRIPOS>BOND
     1     1     4    1
     2     1    24    1
     3     1     2    1
     4     1     3    2
     5    25    28    1
     6    25    24    1
     7    25    26    1
     8    25    27    2
     9     6    11    1
    10     6    12    1
    11    29    36    1
    12    29    37    1
    13     7     9    1
    14     7    13    1
    15     8    10    1
    16     8    14    1
    17     4     5    1
    18    28    36    1
    19    30    33    1
    20    30    38    1
    21    31    34    1
    22    31    39    1
    23    32    35    1
    24    32    40    1
    25    41    43   ar
    26    15    19    2
    27    42    43   ar
    28    16    22    2
    29    17    12    1
    30    17    19   ar
    31    17    20   ar
    32    18    19   ar
    33    18    22   ar
    34    18    23    1
    35     9    10    1
    36     9    11    1
    37    10    12    1
    38    11     5    1
    39    33    34    1
    40    33    35    1
    41    34    36    1
    42    35    37    1
    43    37    43    1
    44    20    21   ar
    45    21    22   ar
@<TRIPOS>MOLECULE
UDP-glaA
 43 45 0 0 0
SMALL
GASTEIGER

@<TRIPOS>ATOM
      1 P          22.8153   71.8044   -2.3365 P.3     1  UNL1        0.2189
      2 O          23.5759   73.2256   -2.4747 O.3     1  UNL1       -0.4371
      3 O          23.3813   70.6990   -3.1790 O.2     1  UNL1       -0.5170
      4 O          21.2618   72.1663   -2.6029 O.3     1  UNL1       -0.3112
      5 C          20.5408   71.3997   -3.5525 C.3     1  UNL1        0.1811
      6 O          18.5988   72.2048   -4.7163 O.3     1  UNL1       -0.3308
      7 O          16.9931   70.9800   -2.4998 O.3     1  UNL1       -0.3794
      8 O          16.7555   69.1374   -4.4958 O.3     1  UNL1       -0.3779
      9 C          18.1988   70.5141   -3.1057 C.3     1  UNL1        0.1713
     10 C          17.9112   69.9495   -4.4809 C.3     1  UNL1        0.1895
     11 C          19.0593   71.7274   -3.4329 C.3     1  UNL1        0.1764
     12 C          17.7495   71.2106   -5.3125 C.3     1  UNL1        0.2383
     13 H          17.2316   71.3671   -1.6403 H       1  UNL1        0.2105
     14 H          16.8966   68.4159   -3.8588 H       1  UNL1        0.2106
     15 O          16.0200   70.3199   -7.3597 O.2     1  UNL1       -0.2464
     16 O          19.3666   70.5131  -10.5222 O.2     1  UNL1       -0.2670
     17 N          18.1420   71.0199   -6.6796 N.ar    1  UNL1       -0.2551
     18 N          17.6878   70.4162   -8.9330 N.ar    1  UNL1       -0.2743
     19 C          17.1965   70.5683   -7.6297 C.ar    1  UNL1        0.3323
     20 C          19.4519   71.2794   -7.0673 C.ar    1  UNL1        0.0869
     21 C          19.9047   71.1300   -8.3141 C.ar    1  UNL1        0.0795
     22 C          18.9815   70.6613   -9.3665 C.ar    1  UNL1        0.2626
     23 H          17.0257   70.0919   -9.6328 H       1  UNL1        0.1734
     24 O          22.8553   71.5255   -0.7441 O.3     1  UNL1       -0.2703
     25 P          22.0562   70.4543    0.1651 P.3     1  UNL1        0.2208
     26 O          23.2229   69.4572    0.6755 O.3     1  UNL1       -0.4371
     27 O          20.9218   69.7703   -0.5428 O.2     1  UNL1       -0.5170
     28 O          21.6197   71.2798    1.4811 O.3     1  UNL1       -0.2858
     29 O          22.0357   73.5189    0.8384 O.3     1  UNL1       -0.3226
     30 O          20.0936   74.0049    4.4814 O.3     1  UNL1       -0.3794
     31 O          22.0817   71.9000    4.1315 O.3     1  UNL1       -0.3775
     32 O          20.9324   75.6435    2.4219 O.3     1  UNL1       -0.3792
     33 C          20.4200   73.4228    3.2225 C.3     1  UNL1        0.1718
     34 C          21.8825   72.9653    3.2083 C.3     1  UNL1        0.1968
     35 C          20.1850   74.4603    2.1212 C.3     1  UNL1        0.1723
     36 C          22.2914   72.4960    1.8066 C.3     1  UNL1        0.2706
     37 C          20.6631   73.9042    0.7817 C.3     1  UNL1        0.1830
     38 H          19.1621   74.2814    4.4440 H       1  UNL1        0.2105
     39 H          23.0165   71.6385    4.0805 H       1  UNL1        0.2106
     40 H          21.8731   75.4661    2.2520 H       1  UNL1        0.2106
     41 O          19.3012   75.0347   -0.7581 O.co2   1  UNL1       -0.5466
     42 O          21.5108   75.5945   -0.7197 O.co2   1  UNL1       -0.5466
     43 C          20.5726   74.9319   -0.3011 C.2     1  UNL1        0.0799
@<TRIPOS>UNITY_ATOM_ATTR
41 1
charge -1
@<TRIPOS>BOND
     1     1     4    1
     2     1    24    1
     3     1     2    1
     4     1     3    2
     5    25    28    1
     6    25    24    1
     7    25    26    1
     8    25    27    2
     9     6    11    1
    10     6    12    1
    11    29    36    1
    12    29    37    1
    13     7     9    1
    14     7    13    1
    15     8    10    1
    16     8    14    1
    17     4     5    1
    18    28    36    1
    19    30    33    1
    20    30    38    1
    21    31    34    1
    22    31    39    1
    23    32    35    1
    24    32    40    1
    25    41    43   ar
    26    15    19    2
    27    42    43   ar
    28    16    22    2
    29    17    12    1
    30    17    19   ar
    31    17    20   ar
    32    18    19   ar
    33    18    22   ar
    34    18    23    1
    35     9    10    1
    36     9    11    1
    37    10    12    1
    38    11     5    1
    39    33    34    1
    40    33    35    1
    41    34    36    1
    42    35    37    1
    43    37    43    1
    44    20    21   ar
    45    21    22   ar
@<TRIPOS>MOLECULE
UDP-glaA
 43 45 0 0 0
SMALL
GASTEIGER

@<TRIPOS>ATOM
      1 P          21.5262   73.3426   -6.2454 P.3     1  UNL1        0.2189
      2 O          21.3672   74.9500   -6.3357 O.3     1  UNL1       -0.4371
      3 O          22.7270   72.7847   -6.9519 O.2     1  UNL1       -0.5170
      4 O          20.0938   72.7807   -6.7432 O.3     1  UNL1       -0.3112
      5 C          19.8071   71.4039   -6.5652 C.3     1  UNL1        0.1811
      6 O          17.5878   71.0212   -7.4034 O.3     1  UNL1       -0.3308
      7 O          18.8325   70.9454  -10.1304 O.3     1  UNL1       -0.3794
      8 O          17.7747   73.4566  -10.0282 O.3     1  UNL1       -0.3779
      9 C          19.1741   71.7528   -9.0038 C.3     1  UNL1        0.1713
     10 C          18.1442   72.8456   -8.8093 C.3     1  UNL1        0.1895
     11 C          18.9864   70.9110   -7.7485 C.3     1  UNL1        0.1764
     12 C          16.9966   72.0869   -8.1649 C.3     1  UNL1        0.2383
     13 H          19.4967   70.2378  -10.1918 H       1  UNL1        0.2105
     14 H          18.5821   73.8228  -10.4286 H       1  UNL1        0.2106
     15 O          14.9082   73.7899   -9.0099 O.2     1  UNL1       -0.2464
     16 O          14.0796   75.2116   -4.7051 O.2     1  UNL1       -0.2670
     17 N          16.2182   72.9127   -7.2866 N.ar    1  UNL1       -0.2551
     18 N          14.4973   74.4971   -6.8658 N.ar    1  UNL1       -0.2743
     19 C          15.1924   73.7327   -7.8121 C.ar    1  UNL1        0.3323
     20 C          16.4744   72.9051   -5.9199 C.ar    1  UNL1        0.0869
     21 C          15.8024   73.6393   -5.0304 C.ar    1  UNL1        0.0795
     22 C          14.7160   74.5234   -5.4971 C.ar    1  UNL1        0.2626
     23 H          13.7558   75.0947   -7.2210 H       1  UNL1        0.1734
     24 O          21.4920   73.0640   -4.6528 O.3     1  UNL1       -0.2703
     25 P          22.5757   72.3707   -3.6742 P.3     1  UNL1        0.2208
     26 O          23.9746   73.0366   -4.1388 O.3     1  UNL1       -0.4371
     27 O          22.5630   70.8692   -3.7064 O.2     1  UNL1       -0.5170
     28 O          22.2821   73.0090   -2.2215 O.3     1  UNL1       -0.2858
     29 O          21.4656   71.2896   -0.8157 O.3     1  UNL1       -0.3226
     30 O          21.3832   74.5912    1.7085 O.3     1  UNL1       -0.3794
     31 O          20.5562   74.8353   -1.0776 O.3     1  UNL1       -0.3775
     32 O          21.0146   71.8652    1.9599 O.3     1  UNL1       -0.3792
     33 C          21.8388   73.7319    0.6672 C.3     1  UNL1        0.1718
     34 C          20.7656   73.5913   -0.4176 C.3     1  UNL1        0.1968
     35 C          22.1635   72.3597    1.2639 C.3     1  UNL1        0.1723
     36 C          21.1755   72.5376   -1.4539 C.3     1  UNL1        0.2706
     37 C          22.5173   71.3838    0.1438 C.3     1  UNL1        0.1830
     38 H          22.0915   74.6489    2.3722 H       1  UNL1        0.2105
     39 H          19.8779   74.6951   -1.7596 H       1  UNL1        0.2106
     40 H          20.3543   71.5829    1.3045 H       1  UNL1        0.2106
     41 O          23.3539   70.0248    1.8635 O.co2   1  UNL1       -0.5466
     42 O          22.3526   68.9752    0.1048 O.co2   1  UNL1       -0.5466
     43 C          22.7159   69.9973    0.6686 C.2     1  UNL1        0.0799
@<TRIPOS>UNITY_ATOM_ATTR
41 1
charge -1
@<TRIPOS>BOND
     1     1     4    1
     2     1    24    1
     3     1     2    1
     4     1     3    2
     5    25    28    1
     6    25    24    1
     7    25    26    1
     8    25    27    2
     9     6    11    1
    10     6    12    1
    11    29    36    1
    12    29    37    1
    13     7     9    1
    14     7    13    1
    15     8    10    1
    16     8    14    1
    17     4     5    1
    18    28    36    1
    19    30    33    1
    20    30    38    1
    21    31    34    1
    22    31    39    1
    23    32    35    1
    24    32    40    1
    25    41    43   ar
    26    15    19    2
    27    42    43   ar
    28    16    22    2
    29    17    12    1
    30    17    19   ar
    31    17    20   ar
    32    18    19   ar
    33    18    22   ar
    34    18    23    1
    35     9    10    1
    36     9    11    1
    37    10    12    1
    38    11     5    1
    39    33    34    1
    40    33    35    1
    41    34    36    1
    42    35    37    1
    43    37    43    1
    44    20    21   ar
    45    21    22   ar
@<TRIPOS>MOLECULE
UDP-glaA
 43 45 0 0 0
SMALL
GASTEIGER

@<TRIPOS>ATOM
      1 P          22.7698   72.1229   -2.2478 P.3     1  UNL1        0.2189
      2 O          23.7569   73.1098   -3.0656 O.3     1  UNL1       -0.4371
      3 O          23.1505   70.6718   -2.2872 O.2     1  UNL1       -0.5170
      4 O          21.2999   72.4797   -2.8204 O.3     1  UNL1       -0.3112
      5 C          20.5422   71.4491   -3.4310 C.3     1  UNL1        0.1811
      6 O          18.6174   72.2690   -4.6130 O.3     1  UNL1       -0.3308
      7 O          16.9822   71.0664   -2.4059 O.3     1  UNL1       -0.3794
      8 O          16.7432   69.2199   -4.3981 O.3     1  UNL1       -0.3779
      9 C          18.1882   70.5872   -3.0006 C.3     1  UNL1        0.1713
     10 C          17.9065   70.0210   -4.3763 C.3     1  UNL1        0.1895
     11 C          19.0629   71.7913   -3.3245 C.3     1  UNL1        0.1764
     12 C          17.7636   71.2810   -5.2131 C.3     1  UNL1        0.2383
     13 H          17.2174   71.4541   -1.5457 H       1  UNL1        0.2105
     14 H          16.8723   68.4991   -3.7578 H       1  UNL1        0.2106
     15 O          16.0519   70.3634   -7.2634 O.2     1  UNL1       -0.2464
     16 O          19.4159   70.5535  -10.4077 O.2     1  UNL1       -0.2670
     17 N          18.1654   71.0822   -6.5763 N.ar    1  UNL1       -0.2551
     18 N          17.7283   70.4582   -8.8276 N.ar    1  UNL1       -0.2743
     19 C          17.2284   70.6171   -7.5284 C.ar    1  UNL1        0.3323
     20 C          19.4758   71.3472   -6.9584 C.ar    1  UNL1        0.0869
     21 C          19.9370   71.1910   -8.2013 C.ar    1  UNL1        0.0795
     22 C          19.0230   70.7082   -9.2554 C.ar    1  UNL1        0.2626
     23 H          17.0725   70.1242   -9.5287 H       1  UNL1        0.1734
     24 O          22.7508   72.7743   -0.7678 O.3     1  UNL1       -0.2703
     25 P          23.1485   74.2550   -0.2559 P.3     1  UNL1        0.2208
     26 O          22.1055   75.2111   -1.0396 O.3     1  UNL1       -0.4371
     27 O          24.5927   74.6113   -0.4636 O.2     1  UNL1       -0.5170
     28 O          22.6657   74.2989    1.2832 O.3     1  UNL1       -0.2858
     29 O          23.8513   73.6191    3.2150 O.3     1  UNL1       -0.3226
     30 O          19.9058   72.9284    4.3265 O.3     1  UNL1       -0.3794
     31 O          20.8239   72.2728    1.6370 O.3     1  UNL1       -0.3775
     32 O          22.3727   72.9041    5.5689 O.3     1  UNL1       -0.3792
     33 C          21.0092   73.5643    3.6874 C.3     1  UNL1        0.1718
     34 C          21.6942   72.5970    2.7160 C.3     1  UNL1        0.1968
     35 C          22.0035   74.0238    4.7573 C.3     1  UNL1        0.1723
     36 C          22.9812   73.2129    2.1534 C.3     1  UNL1        0.2706
     37 C          23.2580   74.5798    4.0871 C.3     1  UNL1        0.1830
     38 H          19.5051   73.5750    4.9322 H       1  UNL1        0.2105
     39 H          21.3026   71.6679    1.0455 H       1  UNL1        0.2106
     40 H          22.9696   72.3338    5.0554 H       1  UNL1        0.2106
     41 O          25.3121   74.0097    5.0667 O.co2   1  UNL1       -0.5466
     42 O          24.2799   75.8899    5.8390 O.co2   1  UNL1       -0.5466
     43 C          24.3103   74.9215    5.0935 C.2     1  UNL1        0.0799
@<TRIPOS>UNITY_ATOM_ATTR
41 1
charge -1
@<TRIPOS>BOND
     1     1     4    1
     2     1    24    1
     3     1     2    1
     4     1     3    2
     5    25    28    1
     6    25    24    1
     7    25    26    1
     8    25    27    2
     9     6    11    1
    10     6    12    1
    11    29    36    1
    12    29    37    1
    13     7     9    1
    14     7    13    1
    15     8    10    1
    16     8    14    1
    17     4     5    1
    18    28    36    1
    19    30    33    1
    20    30    38    1
    21    31    34    1
    22    31    39    1
    23    32    35    1
    24    32    40    1
    25    41    43   ar
    26    15    19    2
    27    42    43   ar
    28    16    22    2
    29    17    12    1
    30    17    19   ar
    31    17    20   ar
    32    18    19   ar
    33    18    22   ar
    34    18    23    1
    35     9    10    1
    36     9    11    1
    37    10    12    1
    38    11     5    1
    39    33    34    1
    40    33    35    1
    41    34    36    1
    42    35    37    1
    43    37    43    1
    44    20    21   ar
    45    21    22   ar
@<TRIPOS>MOLECULE
UDP-glaA
 43 45 0 0 0
SMALL
GASTEIGER

@<TRIPOS>ATOM
      1 P          21.7900   73.0448   -4.5767 P.3     1  UNL1        0.2189
      2 O          22.0314   73.9830   -3.2811 O.3     1  UNL1       -0.4371
      3 O          22.9922   72.8571   -5.4552 O.2     1  UNL1       -0.5170
      4 O          20.4918   73.6930   -5.2909 O.3     1  UNL1       -0.3112
      5 C          20.4933   75.0837   -5.5654 C.3     1  UNL1        0.1811
      6 O          20.3162   74.0318   -7.7186 O.3     1  UNL1       -0.3308
      7 O          20.0620   76.8002   -8.8423 O.3     1  UNL1       -0.3794
      8 O          17.4775   75.9312   -8.8093 O.3     1  UNL1       -0.3779
      9 C          19.5647   76.2759   -7.6112 C.3     1  UNL1        0.1713
     10 C          18.3722   75.3784   -7.8662 C.3     1  UNL1        0.1895
     11 C          20.5938   75.2924   -7.0697 C.3     1  UNL1        0.1764
     12 C          19.0355   74.1064   -8.3662 C.3     1  UNL1        0.2383
     13 H          20.8464   77.3356   -8.6334 H       1  UNL1        0.2105
     14 H          17.1831   76.7916   -8.4641 H       1  UNL1        0.2106
     15 O          18.9320   71.7851   -9.9712 O.2     1  UNL1       -0.2464
     16 O          16.0985   69.6542   -7.0269 O.2     1  UNL1       -0.2670
     17 N          18.2794   72.9304   -8.0430 N.ar    1  UNL1       -0.2551
     18 N          17.5207   70.7257   -8.5043 N.ar    1  UNL1       -0.2743
     19 C          18.2940   71.8186   -8.9174 C.ar    1  UNL1        0.3323
     20 C          17.5334   72.8864   -6.8705 C.ar    1  UNL1        0.0869
     21 C          16.8015   71.8368   -6.4903 C.ar    1  UNL1        0.0795
     22 C          16.7620   70.6354   -7.3475 C.ar    1  UNL1        0.2626
     23 H          17.5158   69.9153   -9.1177 H       1  UNL1        0.1734
     24 O          21.2069   71.6808   -3.9328 O.3     1  UNL1       -0.2703
     25 P          21.8099   70.7027   -2.7959 P.3     1  UNL1        0.2208
     26 O          23.3979   70.7112   -3.1033 O.3     1  UNL1       -0.4371
     27 O          21.1909   69.3345   -2.7689 O.2     1  UNL1       -0.5170
     28 O          21.6558   71.5314   -1.4199 O.3     1  UNL1       -0.2858
     29 O          23.3081   72.8914   -0.4101 O.3     1  UNL1       -0.3226
     30 O          21.0247   71.7217    2.8606 O.3     1  UNL1       -0.3794
     31 O          21.6675   69.8190    0.7458 O.3     1  UNL1       -0.3775
     32 O          23.0821   73.5025    2.3853 O.3     1  UNL1       -0.3792
     33 C          21.3194   72.0969    1.5179 C.3     1  UNL1        0.1718
     34 C          22.2876   71.0932    0.8828 C.3     1  UNL1        0.1968
     35 C          21.9419   73.4958    1.5200 C.3     1  UNL1        0.1723
     36 C          22.7444   71.5786   -0.4986 C.3     1  UNL1        0.2706
     37 C          22.3950   73.8580    0.1073 C.3     1  UNL1        0.1830
     38 H          20.4124   72.3846    3.2228 H       1  UNL1        0.2105
     39 H          22.3130   69.2215    0.3321 H       1  UNL1        0.2106
     40 H          23.8061   73.0251    1.9459 H       1  UNL1        0.2106
     41 O          22.3634   76.1286   -0.4816 O.co2   1  UNL1       -0.5466
     42 O          24.2550   75.3417    0.5181 O.co2   1  UNL1       -0.5466
     43 C          23.1261   75.1626    0.0846 C.2     1  UNL1        0.0799
@<TRIPOS>UNITY_ATOM_ATTR
41 1
charge -1
@<TRIPOS>BOND
     1     1     4    1
     2     1    24    1
     3     1     2    1
     4     1     3    2
     5    25    28    1
     6    25    24    1
     7    25    26    1
     8    25    27    2
     9     6    11    1
    10     6    12    1
    11    29    36    1
    12    29    37    1
    13     7     9    1
    14     7    13    1
    15     8    10    1
    16     8    14    1
    17     4     5    1
    18    28    36    1
    19    30    33    1
    20    30    38    1
    21    31    34    1
    22    31    39    1
    23    32    35    1
    24    32    40    1
    25    41    43   ar
    26    15    19    2
    27    42    43   ar
    28    16    22    2
    29    17    12    1
    30    17    19   ar
    31    17    20   ar
    32    18    19   ar
    33    18    22   ar
    34    18    23    1
    35     9    10    1
    36     9    11    1
    37    10    12    1
    38    11     5    1
    39    33    34    1
    40    33    35    1
    41    34    36    1
    42    35    37    1
    43    37    43    1
    44    20    21   ar
    45    21    22   ar
@<TRIPOS>MOLECULE
UDP-glaA
 43 45 0 0 0
SMALL
GASTEIGER

@<TRIPOS>ATOM
      1 P          21.6834   73.2657   -5.7834 P.3     1  UNL1        0.2189
      2 O          21.8524   74.7656   -5.2013 O.3     1  UNL1       -0.4371
      3 O          22.6300   72.9062   -6.8911 O.2     1  UNL1       -0.5170
      4 O          20.1098   73.1618   -6.1421 O.3     1  UNL1       -0.3112
      5 C          19.5487   71.8791   -6.3634 C.3     1  UNL1        0.1811
      6 O          18.6510   71.8294   -4.1349 O.3     1  UNL1       -0.3308
      7 O          19.4237   68.9324   -4.0891 O.3     1  UNL1       -0.3794
      8 O          16.7448   68.8264   -4.5869 O.3     1  UNL1       -0.3779
      9 C          18.9291   69.7183   -5.1734 C.3     1  UNL1        0.1713
     10 C          17.4480   69.9800   -4.9994 C.3     1  UNL1        0.1895
     11 C          19.5171   71.1174   -5.0460 C.3     1  UNL1        0.1764
     12 C          17.4424   71.0750   -3.9463 C.3     1  UNL1        0.2383
     13 H          20.3807   68.8239   -4.2228 H       1  UNL1        0.2105
     14 H          16.8880   68.1397   -5.2608 H       1  UNL1        0.2106
     15 O          15.4979   71.4878   -1.9404 O.2     1  UNL1       -0.2464
     16 O          13.1652   74.4767   -4.5602 O.2     1  UNL1       -0.2670
     17 N          16.3169   71.9557   -4.0771 N.ar    1  UNL1       -0.2551
     18 N          14.3373   72.9755   -3.2464 N.ar    1  UNL1       -0.2743
     19 C          15.3978   72.0907   -3.0105 C.ar    1  UNL1        0.3323
     20 C          16.1322   72.6745   -5.2529 C.ar    1  UNL1        0.0869
     21 C          15.1162   73.5146   -5.4624 C.ar    1  UNL1        0.0795
     22 C          14.1114   73.7120   -4.3989 C.ar    1  UNL1        0.2626
     23 H          13.6638   73.0879   -2.4936 H       1  UNL1        0.1734
     24 O          21.8155   72.3462   -4.4596 O.3     1  UNL1       -0.2703
     25 P          23.0283   72.1740   -3.4051 P.3     1  UNL1        0.2208
     26 O          24.1899   73.1179   -4.0180 O.3     1  UNL1       -0.4371
     27 O          23.4449   70.7498   -3.1728 O.2     1  UNL1       -0.5170
     28 O          22.5304   72.9476   -2.0794 O.3     1  UNL1       -0.2858
     29 O          21.6880   71.2606   -0.6498 O.3     1  UNL1       -0.3226
     30 O          21.3021   74.6671    1.7010 O.3     1  UNL1       -0.3794
     31 O          20.6592   74.7487   -1.1426 O.3     1  UNL1       -0.3775
     32 O          21.0252   71.9422    2.0585 O.3     1  UNL1       -0.3792
     33 C          21.8617   73.7816    0.7351 C.3     1  UNL1        0.1718
     34 C          20.8718   73.5461   -0.4108 C.3     1  UNL1        0.1968
     35 C          22.1987   72.4531    1.4176 C.3     1  UNL1        0.1723
     36 C          21.3932   72.4648   -1.3654 C.3     1  UNL1        0.2706
     37 C          22.6668   71.4432    0.3721 C.3     1  UNL1        0.1830
     38 H          21.9604   74.7851    2.4069 H       1  UNL1        0.2105
     39 H          20.0354   74.5487   -1.8607 H       1  UNL1        0.2106
     40 H          20.4231   71.6024    1.3750 H       1  UNL1        0.2106
     41 O          22.3129   69.1296    0.2109 O.co2   1  UNL1       -0.5466
     42 O          23.4932   69.8762    2.0127 O.co2   1  UNL1       -0.5466
     43 C          22.8835   70.0918    0.9752 C.2     1  UNL1        0.0799
@<TRIPOS>UNITY_ATOM_ATTR
41 1
charge -1
@<TRIPOS>BOND
     1     1     4    1
     2     1    24    1
     3     1     2    1
     4     1     3    2
     5    25    28    1
     6    25    24    1
     7    25    26    1
     8    25    27    2
     9     6    11    1
    10     6    12    1
    11    29    36    1
    12    29    37    1
    13     7     9    1
    14     7    13    1
    15     8    10    1
    16     8    14    1
    17     4     5    1
    18    28    36    1
    19    30    33    1
    20    30    38    1
    21    31    34    1
    22    31    39    1
    23    32    35    1
    24    32    40    1
    25    41    43   ar
    26    15    19    2
    27    42    43   ar
    28    16    22    2
    29    17    12    1
    30    17    19   ar
    31    17    20   ar
    32    18    19   ar
    33    18    22   ar
    34    18    23    1
    35     9    10    1
    36     9    11    1
    37    10    12    1
    38    11     5    1
    39    33    34    1
    40    33    35    1
    41    34    36    1
    42    35    37    1
    43    37    43    1
    44    20    21   ar
    45    21    22   ar
@<TRIPOS>MOLECULE
UDP-glaA
 43 45 0 0 0
SMALL
GASTEIGER

@<TRIPOS>ATOM
      1 P          23.2966   73.0832   -3.5034 P.3     1  UNL1        0.2189
      2 O          23.4476   71.4995   -3.2096 O.3     1  UNL1       -0.4371
      3 O          24.5699   73.7807   -3.8833 O.2     1  UNL1       -0.5170
      4 O          22.5479   73.6539   -2.1883 O.3     1  UNL1       -0.3112
      5 C          23.1609   73.4651   -0.9243 C.3     1  UNL1        0.1811
      6 O          20.8538   72.8660   -0.6199 O.3     1  UNL1       -0.3308
      7 O          21.6910   71.7344    2.0277 O.3     1  UNL1       -0.3794
      8 O          21.4986   69.5093    0.4632 O.3     1  UNL1       -0.3779
      9 C          22.3962   71.7455    0.7866 C.3     1  UNL1        0.1713
     10 C          21.7931   70.7378   -0.1691 C.3     1  UNL1        0.1895
     11 C          22.0971   73.0656    0.0883 C.3     1  UNL1        0.1764
     12 C          20.5461   71.4624   -0.6466 C.3     1  UNL1        0.2383
     13 H          22.0864   72.4207    2.5918 H       1  UNL1        0.2105
     14 H          22.3289   69.1651    0.8350 H       1  UNL1        0.2106
     15 O          21.3107   69.0523   -1.9044 O.2     1  UNL1       -0.2464
     16 O          19.0600   70.1448   -5.7747 O.2     1  UNL1       -0.2670
     17 N          20.1737   71.0911   -1.9818 N.ar    1  UNL1       -0.2551
     18 N          20.1898   69.5982   -3.8310 N.ar    1  UNL1       -0.2743
     19 C          20.6110   69.8584   -2.5203 C.ar    1  UNL1        0.3323
     20 C          19.3836   71.9447   -2.7438 C.ar    1  UNL1        0.0869
     21 C          18.9901   71.6820   -3.9919 C.ar    1  UNL1        0.0795
     22 C          19.4044   70.4160   -4.6285 C.ar    1  UNL1        0.2626
     23 H          20.4928   68.7178   -4.2388 H       1  UNL1        0.1734
     24 O          22.1386   73.1337   -4.6311 O.3     1  UNL1       -0.2703
     25 P          22.0461   73.9558   -6.0197 P.3     1  UNL1        0.2208
     26 O          22.7686   72.9728   -7.0817 O.3     1  UNL1       -0.4371
     27 O          22.6304   75.3380   -5.9573 O.2     1  UNL1       -0.5170
     28 O          20.4832   73.9101   -6.4186 O.3     1  UNL1       -0.2858
     29 O          20.1930   73.2085   -8.6598 O.3     1  UNL1       -0.3226
     30 O          16.3086   74.1771   -7.5405 O.3     1  UNL1       -0.3794
     31 O          18.5486   75.8563   -6.7226 O.3     1  UNL1       -0.3775
     32 O          17.5301   72.9699   -9.7040 O.3     1  UNL1       -0.3792
     33 C          17.6465   73.7056   -7.4061 C.3     1  UNL1        0.1718
     34 C          18.6425   74.8310   -7.7059 C.3     1  UNL1        0.1968
     35 C          17.8618   72.5427   -8.3787 C.3     1  UNL1        0.1723
     36 C          20.0785   74.2928   -7.7323 C.3     1  UNL1        0.2706
     37 C          19.3279   72.1164   -8.3524 C.3     1  UNL1        0.1830
     38 H          15.7142   73.4329   -7.3446 H       1  UNL1        0.2105
     39 H          19.2020   76.5397   -6.9481 H       1  UNL1        0.2106
     40 H          18.2356   73.5565  -10.0251 H       1  UNL1        0.2106
     41 O          20.1516   69.9672   -8.8070 O.co2   1  UNL1       -0.5466
     42 O          19.3877   71.1824  -10.5781 O.co2   1  UNL1       -0.5466
     43 C          19.6118   71.0691   -9.3817 C.2     1  UNL1        0.0799
@<TRIPOS>UNITY_ATOM_ATTR
41 1
charge -1
@<TRIPOS>BOND
     1     1     4    1
     2     1    24    1
     3     1     2    1
     4     1     3    2
     5    25    28    1
     6    25    24    1
     7    25    26    1
     8    25    27    2
     9     6    11    1
    10     6    12    1
    11    29    36    1
    12    29    37    1
    13     7     9    1
    14     7    13    1
    15     8    10    1
    16     8    14    1
    17     4     5    1
    18    28    36    1
    19    30    33    1
    20    30    38    1
    21    31    34    1
    22    31    39    1
    23    32    35    1
    24    32    40    1
    25    41    43   ar
    26    15    19    2
    27    42    43   ar
    28    16    22    2
    29    17    12    1
    30    17    19   ar
    31    17    20   ar
    32    18    19   ar
    33    18    22   ar
    34    18    23    1
    35     9    10    1
    36     9    11    1
    37    10    12    1
    38    11     5    1
    39    33    34    1
    40    33    35    1
    41    34    36    1
    42    35    37    1
    43    37    43    1
    44    20    21   ar
    45    21    22   ar
@<TRIPOS>MOLECULE
UDP-glaA
 43 45 0 0 0
SMALL
GASTEIGER

@<TRIPOS>ATOM
      1 P          21.8410   73.8258   -5.9538 P.3     1  UNL1        0.2189
      2 O          22.1400   75.4157   -5.9446 O.3     1  UNL1       -0.4371
      3 O          22.8038   73.0053   -6.7613 O.2     1  UNL1       -0.5170
      4 O          20.2884   73.7238   -6.3951 O.3     1  UNL1       -0.3112
      5 C          19.8550   74.4634   -7.5240 C.3     1  UNL1        0.1811
      6 O          19.6013   72.1501   -8.1228 O.3     1  UNL1       -0.3308
      7 O          17.9110   73.1190  -10.4021 O.3     1  UNL1       -0.3794
      8 O          16.0491   72.2918   -8.5897 O.3     1  UNL1       -0.3779
      9 C          18.0179   73.6332   -9.0747 C.3     1  UNL1        0.1713
     10 C          17.3020   72.7226   -8.0996 C.3     1  UNL1        0.1895
     11 C          19.4690   73.4952   -8.6331 C.3     1  UNL1        0.1764
     12 C          18.2932   71.5813   -7.9473 C.3     1  UNL1        0.2383
     13 H          18.4159   73.7122  -10.9842 H       1  UNL1        0.2105
     14 H          15.5142   73.0855   -8.7634 H       1  UNL1        0.2106
     15 O          16.0826   70.0959   -7.0082 O.2     1  UNL1       -0.2464
     16 O          18.1321   69.2542   -2.9672 O.2     1  UNL1       -0.2670
     17 N          18.2224   70.9626   -6.6544 N.ar    1  UNL1       -0.2551
     18 N          17.1044   69.6782   -4.9964 N.ar    1  UNL1       -0.2743
     19 C          17.0661   70.2394   -6.2796 C.ar    1  UNL1        0.3323
     20 C          19.2914   71.0757   -5.7724 C.ar    1  UNL1        0.0869
     21 C          19.3129   70.5345   -4.5524 C.ar    1  UNL1        0.0795
     22 C          18.1442   69.7639   -4.0835 C.ar    1  UNL1        0.2626
     23 H          16.2835   69.1543   -4.7053 H       1  UNL1        0.1734
     24 O          21.7962   73.4563   -4.3801 O.3     1  UNL1       -0.2703
     25 P          22.9645   72.9825   -3.3686 P.3     1  UNL1        0.2208
     26 O          23.9668   74.2516   -3.3387 O.3     1  UNL1       -0.4371
     27 O          23.6185   71.6847   -3.7477 O.2     1  UNL1       -0.5170
     28 O          22.2680   72.9778   -1.9129 O.3     1  UNL1       -0.2858
     29 O          22.6761   73.7064    0.3011 O.3     1  UNL1       -0.3226
     30 O          21.6246   69.7258    0.8741 O.3     1  UNL1       -0.3794
     31 O          23.3448   70.4984   -1.3508 O.3     1  UNL1       -0.3775
     32 O          22.0914   71.9271    2.4761 O.3     1  UNL1       -0.3792
     33 C          21.6257   71.0232    0.2850 C.3     1  UNL1        0.1718
     34 C          23.0158   71.3591   -0.2655 C.3     1  UNL1        0.1968
     35 C          21.2206   72.0495    1.3466 C.3     1  UNL1        0.1723
     36 C          23.0727   72.8145   -0.7459 C.3     1  UNL1        0.2706
     37 C          21.3531   73.4592    0.7745 C.3     1  UNL1        0.1830
     38 H          20.7280   69.5570    1.2103 H       1  UNL1        0.2105
     39 H          24.2261   70.7541   -1.6714 H       1  UNL1        0.2106
     40 H          22.9575   72.3004    2.2403 H       1  UNL1        0.2106
     41 O          20.1052   74.1001    2.6549 O.co2   1  UNL1       -0.5466
     42 O          21.6851   75.5646    1.9090 O.co2   1  UNL1       -0.5466
     43 C          21.0920   74.4995    1.8169 C.2     1  UNL1        0.0799
@<TRIPOS>UNITY_ATOM_ATTR
41 1
charge -1
@<TRIPOS>BOND
     1     1     4    1
     2     1    24    1
     3     1     2    1
     4     1     3    2
     5    25    28    1
     6    25    24    1
     7    25    26    1
     8    25    27    2
     9     6    11    1
    10     6    12    1
    11    29    36    1
    12    29    37    1
    13     7     9    1
    14     7    13    1
    15     8    10    1
    16     8    14    1
    17     4     5    1
    18    28    36    1
    19    30    33    1
    20    30    38    1
    21    31    34    1
    22    31    39    1
    23    32    35    1
    24    32    40    1
    25    41    43   ar
    26    15    19    2
    27    42    43   ar
    28    16    22    2
    29    17    12    1
    30    17    19   ar
    31    17    20   ar
    32    18    19   ar
    33    18    22   ar
    34    18    23    1
    35     9    10    1
    36     9    11    1
    37    10    12    1
    38    11     5    1
    39    33    34    1
    40    33    35    1
    41    34    36    1
    42    35    37    1
    43    37    43    1
    44    20    21   ar
    45    21    22   ar
@<TRIPOS>MOLECULE
UDP-glaA
 43 45 0 0 0
SMALL
GASTEIGER

@<TRIPOS>ATOM
      1 P          22.9801   71.9244   -3.2777 P.3     1  UNL1        0.2189
      2 O          23.6222   70.4411   -3.2063 O.3     1  UNL1       -0.4371
      3 O          23.8189   72.9435   -3.9918 O.2     1  UNL1       -0.5170
      4 O          22.6169   72.2662   -1.7393 O.3     1  UNL1       -0.3112
      5 C          22.6863   73.6155   -1.3106 C.3     1  UNL1        0.1811
      6 O          20.7156   73.6557    0.0639 O.3     1  UNL1       -0.3308
      7 O          19.9285   76.1140   -1.4620 O.3     1  UNL1       -0.3794
      8 O          20.9112   77.1455    0.8631 O.3     1  UNL1       -0.3779
      9 C          21.2260   75.6819   -1.0525 C.3     1  UNL1        0.1713
     10 C          21.4039   75.8923    0.4364 C.3     1  UNL1        0.1895
     11 C          21.2737   74.1640   -1.1679 C.3     1  UNL1        0.1764
     12 C          20.6186   74.7280    1.0158 C.3     1  UNL1        0.2383
     13 H          19.8463   75.9242   -2.4122 H       1  UNL1        0.2105
     14 H          21.3891   77.8323    0.3670 H       1  UNL1        0.2106
     15 O          23.3714   74.4839    1.5972 O.2     1  UNL1       -0.2464
     16 O          22.5229   73.0123    5.8812 O.2     1  UNL1       -0.2670
     17 N          21.1451   74.2841    2.2748 N.ar    1  UNL1       -0.2551
     18 N          22.9470   73.7508    3.7299 N.ar    1  UNL1       -0.2743
     19 C          22.5441   74.1959    2.4640 C.ar    1  UNL1        0.3323
     20 C          20.2782   73.9414    3.3065 C.ar    1  UNL1        0.0869
     21 C          20.6780   73.5191    4.5081 C.ar    1  UNL1        0.0795
     22 C          22.1227   73.3981    4.7872 C.ar    1  UNL1        0.2626
     23 H          23.9485   73.6790    3.8883 H       1  UNL1        0.1734
     24 O          21.5301   71.6599   -3.9430 O.3     1  UNL1       -0.2703
     25 P          20.3819   70.5789   -3.5880 P.3     1  UNL1        0.2208
     26 O          19.3863   71.4014   -2.6142 O.3     1  UNL1       -0.4371
     27 O          20.9023   69.2972   -3.0031 O.2     1  UNL1       -0.5170
     28 O          19.5529   70.3973   -4.9605 O.3     1  UNL1       -0.2858
     29 O          19.0193   72.0211   -6.5968 O.3     1  UNL1       -0.3226
     30 O          15.7897   69.4181   -6.8672 O.3     1  UNL1       -0.3794
     31 O          16.8923   70.1460   -4.2672 O.3     1  UNL1       -0.3775
     32 O          16.7389   71.5900   -8.2858 O.3     1  UNL1       -0.3792
     33 C          17.1351   69.8421   -6.6662 C.3     1  UNL1        0.1718
     34 C          17.2187   70.8118   -5.4825 C.3     1  UNL1        0.1968
     35 C          17.6341   70.5275   -7.9412 C.3     1  UNL1        0.1723
     36 C          18.6279   71.4055   -5.3652 C.3     1  UNL1        0.2706
     37 C          19.0229   71.1144   -7.6984 C.3     1  UNL1        0.1830
     38 H          15.7841   68.8095   -7.6256 H       1  UNL1        0.2105
     39 H          16.9679   70.7951   -3.5476 H       1  UNL1        0.2106
     40 H          16.8785   72.3250   -7.6650 H       1  UNL1        0.2106
     41 O          19.1680   71.2829  -10.0339 O.co2   1  UNL1       -0.5466
     42 O          20.0944   72.9697   -8.8118 O.co2   1  UNL1       -0.5466
     43 C          19.4962   71.9055   -8.8762 C.2     1  UNL1        0.0799
@<TRIPOS>UNITY_ATOM_ATTR
41 1
charge -1
@<TRIPOS>BOND
     1     1     4    1
     2     1    24    1
     3     1     2    1
     4     1     3    2
     5    25    28    1
     6    25    24    1
     7    25    26    1
     8    25    27    2
     9     6    11    1
    10     6    12    1
    11    29    36    1
    12    29    37    1
    13     7     9    1
    14     7    13    1
    15     8    10    1
    16     8    14    1
    17     4     5    1
    18    28    36    1
    19    30    33    1
    20    30    38    1
    21    31    34    1
    22    31    39    1
    23    32    35    1
    24    32    40    1
    25    41    43   ar
    26    15    19    2
    27    42    43   ar
    28    16    22    2
    29    17    12    1
    30    17    19   ar
    31    17    20   ar
    32    18    19   ar
    33    18    22   ar
    34    18    23    1
    35     9    10    1
    36     9    11    1
    37    10    12    1
    38    11     5    1
    39    33    34    1
    40    33    35    1
    41    34    36    1
    42    35    37    1
    43    37    43    1
    44    20    21   ar
    45    21    22   ar
@<TRIPOS>MOLECULE
UDP-glaA
 43 45 0 0 0
SMALL
GASTEIGER

@<TRIPOS>ATOM
      1 P          21.9790   70.6906    0.0626 P.3     1  UNL1        0.2189
      2 O          21.7159   69.1684    0.5434 O.3     1  UNL1       -0.4371
      3 O          23.4205   71.0442   -0.1589 O.2     1  UNL1       -0.5170
      4 O          21.1959   71.5862    1.1581 O.3     1  UNL1       -0.3112
      5 C          21.0366   72.9728    0.9108 C.3     1  UNL1        0.1811
      6 O          21.0757   74.7539    2.5233 O.3     1  UNL1       -0.3308
      7 O          23.6290   73.5409    3.5236 O.3     1  UNL1       -0.3794
      8 O          21.7990   72.6628    5.3446 O.3     1  UNL1       -0.3779
      9 C          22.4605   72.8962    3.0168 C.3     1  UNL1        0.1713
     10 C          21.3447   72.9524    4.0388 C.3     1  UNL1        0.1895
     11 C          21.9029   73.7539    1.8886 C.3     1  UNL1        0.1764
     12 C          20.8561   74.3836    3.8944 C.3     1  UNL1        0.2383
     13 H          24.3018   73.5146    2.8221 H       1  UNL1        0.2105
     14 H          22.1942   71.7742    5.3268 H       1  UNL1        0.2106
     15 O          18.9656   75.6067    2.1898 O.2     1  UNL1       -0.2464
     16 O          15.5249   74.8499    5.1610 O.2     1  UNL1       -0.2670
     17 N          19.4599   74.5193    4.1970 N.ar    1  UNL1       -0.2551
     18 N          17.2536   75.2295    3.6707 N.ar    1  UNL1       -0.2743
     19 C          18.5948   75.1508    3.2731 C.ar    1  UNL1        0.3323
     20 C          18.9603   74.0297    5.3987 C.ar    1  UNL1        0.0869
     21 C          17.6788   74.1119    5.7631 C.ar    1  UNL1        0.0795
     22 C          16.7099   74.7577    4.8554 C.ar    1  UNL1        0.2626
     23 H          16.6136   75.6801    3.0223 H       1  UNL1        0.1734
     24 O          21.0437   70.8227   -1.2500 O.3     1  UNL1       -0.2703
     25 P          21.3792   71.3440   -2.7428 P.3     1  UNL1        0.2208
     26 O          22.6543   70.4462   -3.1716 O.3     1  UNL1       -0.4371
     27 O          21.6028   72.8259   -2.8420 O.2     1  UNL1       -0.5170
     28 O          20.1659   70.7906   -3.6515 O.3     1  UNL1       -0.2858
     29 O          18.6871   72.3075   -4.7058 O.3     1  UNL1       -0.3226
     30 O          16.5285   68.7573   -4.8312 O.3     1  UNL1       -0.3794
     31 O          18.0514   69.4821   -2.4518 O.3     1  UNL1       -0.3775
     32 O          16.2750   71.2966   -5.8883 O.3     1  UNL1       -0.3792
     33 C          17.6646   69.6172   -4.8473 C.3     1  UNL1        0.1718
     34 C          17.7769   70.3793   -3.5226 C.3     1  UNL1        0.1968
     35 C          17.5220   70.6043   -6.0091 C.3     1  UNL1        0.1723
     36 C          18.8917   71.4303   -3.5933 C.3     1  UNL1        0.2706
     37 C          18.6573   71.6244   -5.9580 C.3     1  UNL1        0.1830
     38 H          16.4958   68.2984   -5.6878 H       1  UNL1        0.2105
     39 H          18.1230   70.0094   -1.6383 H       1  UNL1        0.2106
     40 H          16.3478   71.9399   -5.1630 H       1  UNL1        0.2106
     41 O          18.8897   73.8894   -6.5235 O.co2   1  UNL1       -0.5466
     42 O          18.0467   72.5012   -8.1233 O.co2   1  UNL1       -0.5466
     43 C          18.4862   72.6861   -6.9976 C.2     1  UNL1        0.0799
@<TRIPOS>UNITY_ATOM_ATTR
41 1
charge -1
@<TRIPOS>BOND
     1     1     4    1
     2     1    24    1
     3     1     2    1
     4     1     3    2
     5    25    28    1
     6    25    24    1
     7    25    26    1
     8    25    27    2
     9     6    11    1
    10     6    12    1
    11    29    36    1
    12    29    37    1
    13     7     9    1
    14     7    13    1
    15     8    10    1
    16     8    14    1
    17     4     5    1
    18    28    36    1
    19    30    33    1
    20    30    38    1
    21    31    34    1
    22    31    39    1
    23    32    35    1
    24    32    40    1
    25    41    43   ar
    26    15    19    2
    27    42    43   ar
    28    16    22    2
    29    17    12    1
    30    17    19   ar
    31    17    20   ar
    32    18    19   ar
    33    18    22   ar
    34    18    23    1
    35     9    10    1
    36     9    11    1
    37    10    12    1
    38    11     5    1
    39    33    34    1
    40    33    35    1
    41    34    36    1
    42    35    37    1
    43    37    43    1
    44    20    21   ar
    45    21    22   ar
@<TRIPOS>MOLECULE
UDP-glaA
 43 45 0 0 0
SMALL
GASTEIGER

@<TRIPOS>ATOM
      1 P          22.8732   71.8926   -3.3785 P.3     1  UNL1        0.2189
      2 O          23.7432   72.9515   -4.2382 O.3     1  UNL1       -0.4371
      3 O          23.5308   70.5610   -3.1622 O.2     1  UNL1       -0.5170
      4 O          21.4445   71.8563   -4.1354 O.3     1  UNL1       -0.3112
      5 C          20.8401   70.5980   -4.3815 C.3     1  UNL1        0.1811
      6 O          18.9976   71.5167   -3.1424 O.3     1  UNL1       -0.3308
      7 O          18.2892   68.6847   -2.4572 O.3     1  UNL1       -0.3794
      8 O          16.5307   69.2713   -4.4571 O.3     1  UNL1       -0.3779
      9 C          18.8296   69.2129   -3.6683 C.3     1  UNL1        0.1713
     10 C          17.7621   69.9631   -4.4365 C.3     1  UNL1        0.1895
     11 C          19.8014   70.3270   -3.3024 C.3     1  UNL1        0.1764
     12 C          17.6835   71.2727   -3.6705 C.3     1  UNL1        0.2383
     13 H          19.0163   68.2478   -1.9817 H       1  UNL1        0.2105
     14 H          16.6899   68.4024   -4.8642 H       1  UNL1        0.2106
     15 O          15.0355   72.2047   -3.9784 O.2     1  UNL1       -0.2464
     16 O          16.3457   75.5106   -6.9098 O.2     1  UNL1       -0.2670
     17 N          17.3041   72.3752   -4.5071 N.ar    1  UNL1       -0.2551
     18 N          15.6896   73.8500   -5.4383 N.ar    1  UNL1       -0.2743
     19 C          15.9465   72.7630   -4.5924 C.ar    1  UNL1        0.3323
     20 C          18.2726   73.0602   -5.2325 C.ar    1  UNL1        0.0869
     21 C          18.0117   74.0950   -6.0344 C.ar    1  UNL1        0.0795
     22 C          16.6189   74.5625   -6.1802 C.ar    1  UNL1        0.2626
     23 H          14.7202   74.1458   -5.5156 H       1  UNL1        0.1734
     24 O          22.5449   72.7098   -2.0222 O.3     1  UNL1       -0.2703
     25 P          21.9917   74.2117   -1.7969 P.3     1  UNL1        0.2208
     26 O          20.4655   74.1283   -2.3260 O.3     1  UNL1       -0.4371
     27 O          22.8189   75.2782   -2.4559 O.2     1  UNL1       -0.5170
     28 O          21.8611   74.3636   -0.1957 O.3     1  UNL1       -0.2858
     29 O          21.1315   72.2517    0.5834 O.3     1  UNL1       -0.3226
     30 O          21.6027   74.3723    4.1274 O.3     1  UNL1       -0.3794
     31 O          20.4263   75.6474    1.7831 O.3     1  UNL1       -0.3775
     32 O          21.0959   71.7535    3.4099 O.3     1  UNL1       -0.3792
     33 C          21.8577   73.9597    2.7877 C.3     1  UNL1        0.1718
     34 C          20.6416   74.2450    1.9000 C.3     1  UNL1        0.1968
     35 C          22.1703   72.4608    2.7821 C.3     1  UNL1        0.1723
     36 C          20.8396   73.6505    0.5000 C.3     1  UNL1        0.2706
     37 C          22.3065   71.9703    1.3423 C.3     1  UNL1        0.1830
     38 H          22.3961   74.1710    4.6524 H       1  UNL1        0.2105
     39 H          19.6549   75.7788    1.2065 H       1  UNL1        0.2106
     40 H          20.3366   71.7429    2.8028 H       1  UNL1        0.2106
     41 O          21.5125   69.9177    0.5300 O.co2   1  UNL1       -0.5466
     42 O          23.3806   69.8649    1.8355 O.co2   1  UNL1       -0.5466
     43 C          22.4838   70.4864    1.2842 C.2     1  UNL1        0.0799
@<TRIPOS>UNITY_ATOM_ATTR
41 1
charge -1
@<TRIPOS>BOND
     1     1     4    1
     2     1    24    1
     3     1     2    1
     4     1     3    2
     5    25    28    1
     6    25    24    1
     7    25    26    1
     8    25    27    2
     9     6    11    1
    10     6    12    1
    11    29    36    1
    12    29    37    1
    13     7     9    1
    14     7    13    1
    15     8    10    1
    16     8    14    1
    17     4     5    1
    18    28    36    1
    19    30    33    1
    20    30    38    1
    21    31    34    1
    22    31    39    1
    23    32    35    1
    24    32    40    1
    25    41    43   ar
    26    15    19    2
    27    42    43   ar
    28    16    22    2
    29    17    12    1
    30    17    19   ar
    31    17    20   ar
    32    18    19   ar
    33    18    22   ar
    34    18    23    1
    35     9    10    1
    36     9    11    1
    37    10    12    1
    38    11     5    1
    39    33    34    1
    40    33    35    1
    41    34    36    1
    42    35    37    1
    43    37    43    1
    44    20    21   ar
    45    21    22   ar
@<TRIPOS>MOLECULE
UDP-glaA
 43 45 0 0 0
SMALL
GASTEIGER

@<TRIPOS>ATOM
      1 P          19.4506   69.4506   -3.1074 P.3     1  UNL1        0.2189
      2 O          19.2195   67.9344   -3.6223 O.3     1  UNL1       -0.4371
      3 O          18.9930   69.7190   -1.7036 O.2     1  UNL1       -0.5170
      4 O          18.7663   70.3608   -4.2558 O.3     1  UNL1       -0.3112
      5 C          17.4613   70.8667   -4.0313 C.3     1  UNL1        0.1811
      6 O          18.3686   72.6213   -5.3997 O.3     1  UNL1       -0.3308
      7 O          16.0431   74.2800   -4.4875 O.3     1  UNL1       -0.3794
      8 O          15.2657   73.4823   -6.9765 O.3     1  UNL1       -0.3779
      9 C          16.0989   72.8824   -4.7728 C.3     1  UNL1        0.1713
     10 C          16.1642   72.6538   -6.2681 C.3     1  UNL1        0.1895
     11 C          17.4542   72.3627   -4.3115 C.3     1  UNL1        0.1764
     12 C          17.6177   72.9735   -6.5733 C.3     1  UNL1        0.2383
     13 H          16.0421   74.3785   -3.5201 H       1  UNL1        0.2105
     14 H          14.3706   73.2930   -6.6462 H       1  UNL1        0.2106
     15 O          16.6181   70.4630   -7.3941 O.2     1  UNL1       -0.2464
     16 O          19.6258   70.1991  -10.8759 O.2     1  UNL1       -0.2670
     17 N          18.1203   72.2268   -7.6909 N.ar    1  UNL1       -0.2551
     18 N          18.1168   70.3330   -9.1271 N.ar    1  UNL1       -0.2743
     19 C          17.5488   70.9751   -8.0188 C.ar    1  UNL1        0.3323
     20 C          19.1687   72.7356   -8.4494 C.ar    1  UNL1        0.0869
     21 C          19.6989   72.1115   -9.5035 C.ar    1  UNL1        0.0795
     22 C          19.1602   70.7990   -9.9119 C.ar    1  UNL1        0.2626
     23 H          17.7222   69.4314   -9.3809 H       1  UNL1        0.1734
     24 O          21.0319   69.6806   -3.3560 O.3     1  UNL1       -0.2703
     25 P          21.9809   70.9505   -3.0411 P.3     1  UNL1        0.2208
     26 O          21.3032   72.1422   -3.8994 O.3     1  UNL1       -0.4371
     27 O          23.4351   70.7216   -3.3389 O.2     1  UNL1       -0.5170
     28 O          21.6663   71.3249   -1.5033 O.3     1  UNL1       -0.2858
     29 O          23.2908   72.7507   -0.5402 O.3     1  UNL1       -0.3226
     30 O          20.9639   71.7334    2.7507 O.3     1  UNL1       -0.3794
     31 O          21.6565   69.7284    0.7492 O.3     1  UNL1       -0.3775
     32 O          23.0142   73.5052    2.2153 O.3     1  UNL1       -0.3792
     33 C          21.2774   72.0404    1.3951 C.3     1  UNL1        0.1718
     34 C          22.2639   71.0135    0.8289 C.3     1  UNL1        0.1968
     35 C          21.8884   73.4430    1.3335 C.3     1  UNL1        0.1723
     36 C          22.7393   71.4301   -0.5686 C.3     1  UNL1        0.2706
     37 C          22.3615   73.7347   -0.0888 C.3     1  UNL1        0.1830
     38 H          20.3403   72.4088    3.0678 H       1  UNL1        0.2105
     39 H          22.3136   69.1159    0.3776 H       1  UNL1        0.2106
     40 H          23.7492   73.0120    1.8131 H       1  UNL1        0.2106
     41 O          24.4160   74.8647   -0.0103 O.co2   1  UNL1       -0.5466
     42 O          22.5492   76.1273   -0.3534 O.co2   1  UNL1       -0.5466
     43 C          23.0823   75.0429   -0.1683 C.2     1  UNL1        0.0799
@<TRIPOS>UNITY_ATOM_ATTR
41 1
charge -1
@<TRIPOS>BOND
     1     1     4    1
     2     1    24    1
     3     1     2    1
     4     1     3    2
     5    25    28    1
     6    25    24    1
     7    25    26    1
     8    25    27    2
     9     6    11    1
    10     6    12    1
    11    29    36    1
    12    29    37    1
    13     7     9    1
    14     7    13    1
    15     8    10    1
    16     8    14    1
    17     4     5    1
    18    28    36    1
    19    30    33    1
    20    30    38    1
    21    31    34    1
    22    31    39    1
    23    32    35    1
    24    32    40    1
    25    41    43   ar
    26    15    19    2
    27    42    43   ar
    28    16    22    2
    29    17    12    1
    30    17    19   ar
    31    17    20   ar
    32    18    19   ar
    33    18    22   ar
    34    18    23    1
    35     9    10    1
    36     9    11    1
    37    10    12    1
    38    11     5    1
    39    33    34    1
    40    33    35    1
    41    34    36    1
    42    35    37    1
    43    37    43    1
    44    20    21   ar
    45    21    22   ar
@<TRIPOS>MOLECULE
UDP-glaA
 43 45 0 0 0
SMALL
GASTEIGER

@<TRIPOS>ATOM
      1 P          22.3901   72.7364   -4.5512 P.3     1  UNL1        0.2189
      2 O          23.9329   73.0232   -4.1575 O.3     1  UNL1       -0.4371
      3 O          21.7866   71.5243   -3.9042 O.2     1  UNL1       -0.5170
      4 O          22.3930   72.7421   -6.1684 O.3     1  UNL1       -0.3112
      5 C          21.1835   73.0349   -6.8470 C.3     1  UNL1        0.1811
      6 O          19.0517   71.9259   -6.8562 O.3     1  UNL1       -0.3308
      7 O          20.3161   69.9141   -8.6851 O.3     1  UNL1       -0.3794
      8 O          18.8990   71.4795  -10.4105 O.3     1  UNL1       -0.3779
      9 C          20.5258   71.3241   -8.6105 C.3     1  UNL1        0.1713
     10 C          19.3446   72.0628   -9.2035 C.3     1  UNL1        0.1895
     11 C          20.4540   71.7327   -7.1450 C.3     1  UNL1        0.1764
     12 C          18.3161   71.9592   -8.0903 C.3     1  UNL1        0.2383
     13 H          21.0778   69.4849   -8.2594 H       1  UNL1        0.2105
     14 H          19.6468   71.4865  -11.0326 H       1  UNL1        0.2106
     15 O          19.0454   74.6052   -8.7553 O.2     1  UNL1       -0.2464
     16 O          14.7835   76.1721   -7.9684 O.2     1  UNL1       -0.2670
     17 N          17.4174   73.0778   -8.0684 N.ar    1  UNL1       -0.2551
     18 N          16.9228   75.3838   -8.3625 N.ar    1  UNL1       -0.2743
     19 C          17.8841   74.3661   -8.4192 C.ar    1  UNL1        0.3323
     20 C          16.0889   72.8925   -7.7019 C.ar    1  UNL1        0.0869
     21 C          15.1844   73.8730   -7.6531 C.ar    1  UNL1        0.0795
     22 C          15.5906   75.2484   -8.0037 C.ar    1  UNL1        0.2626
     23 H          17.2361   76.3185   -8.6100 H       1  UNL1        0.1734
     24 O          21.6574   74.1307   -4.1845 O.3     1  UNL1       -0.2703
     25 P          20.7269   74.5411   -2.9282 P.3     1  UNL1        0.2208
     26 O          19.3438   73.7545   -3.2183 O.3     1  UNL1       -0.4371
     27 O          20.5693   76.0224   -2.7364 O.2     1  UNL1       -0.5170
     28 O          21.3781   73.7713   -1.6683 O.3     1  UNL1       -0.2858
     29 O          20.9853   71.7389   -0.5218 O.3     1  UNL1       -0.3226
     30 O          21.6459   74.3918    2.6095 O.3     1  UNL1       -0.3794
     31 O          20.0610   75.1948    0.2968 O.3     1  UNL1       -0.3775
     32 O          21.3474   71.6606    2.3245 O.3     1  UNL1       -0.3792
     33 C          21.7806   73.8119    1.3150 C.3     1  UNL1        0.1718
     34 C          20.4420   73.8506    0.5701 C.3     1  UNL1        0.1968
     35 C          22.2534   72.3636    1.4679 C.3     1  UNL1        0.1723
     36 C          20.5331   73.0775   -0.7514 C.3     1  UNL1        0.2706
     37 C          22.2673   71.6814    0.1017 C.3     1  UNL1        0.1830
     38 H          22.5144   74.3436    3.0444 H       1  UNL1        0.2105
     39 H          19.2156   75.1685   -0.1823 H       1  UNL1        0.2106
     40 H          20.5260   71.4911    1.8328 H       1  UNL1        0.2106
     41 O          21.4865   69.5042    0.4941 O.co2   1  UNL1       -0.5466
     42 O          23.7156   69.7495    0.0844 O.co2   1  UNL1       -0.5466
     43 C          22.5986   70.2276    0.2193 C.2     1  UNL1        0.0799
@<TRIPOS>UNITY_ATOM_ATTR
41 1
charge -1
@<TRIPOS>BOND
     1     1     4    1
     2     1    24    1
     3     1     2    1
     4     1     3    2
     5    25    28    1
     6    25    24    1
     7    25    26    1
     8    25    27    2
     9     6    11    1
    10     6    12    1
    11    29    36    1
    12    29    37    1
    13     7     9    1
    14     7    13    1
    15     8    10    1
    16     8    14    1
    17     4     5    1
    18    28    36    1
    19    30    33    1
    20    30    38    1
    21    31    34    1
    22    31    39    1
    23    32    35    1
    24    32    40    1
    25    41    43   ar
    26    15    19    2
    27    42    43   ar
    28    16    22    2
    29    17    12    1
    30    17    19   ar
    31    17    20   ar
    32    18    19   ar
    33    18    22   ar
    34    18    23    1
    35     9    10    1
    36     9    11    1
    37    10    12    1
    38    11     5    1
    39    33    34    1
    40    33    35    1
    41    34    36    1
    42    35    37    1
    43    37    43    1
    44    20    21   ar
    45    21    22   ar
@<TRIPOS>MOLECULE
UDP-glaA
 43 45 0 0 0
SMALL
GASTEIGER

@<TRIPOS>ATOM
      1 P          21.4412   73.3206   -5.8042 P.3     1  UNL1        0.2189
      2 O          21.1474   74.8387   -6.2799 O.3     1  UNL1       -0.4371
      3 O          22.4332   72.5739   -6.6471 O.2     1  UNL1       -0.5170
      4 O          19.9713   72.6554   -5.6934 O.3     1  UNL1       -0.3112
      5 C          19.8533   71.3645   -5.1199 C.3     1  UNL1        0.1811
      6 O          17.6309   72.2763   -5.0583 O.3     1  UNL1       -0.3308
      7 O          16.7613   69.5966   -4.0315 O.3     1  UNL1       -0.3794
      8 O          16.0565   69.4833   -6.6633 O.3     1  UNL1       -0.3779
      9 C          17.7692   69.9122   -4.9919 C.3     1  UNL1        0.1713
     10 C          17.1343   70.3227   -6.3038 C.3     1  UNL1        0.1895
     11 C          18.4511   71.2007   -4.5509 C.3     1  UNL1        0.1764
     12 C          16.6928   71.7462   -6.0092 C.3     1  UNL1        0.2383
     13 H          17.2130   69.3781   -3.1986 H       1  UNL1        0.2105
     14 H          16.4006   68.5756   -6.7257 H       1  UNL1        0.2106
     15 O          18.3626   71.3347   -8.2493 O.2     1  UNL1       -0.2464
     16 O          16.6219   74.9917  -10.4481 O.2     1  UNL1       -0.2670
     17 N          16.6965   72.5749   -7.1808 N.ar    1  UNL1       -0.2551
     18 N          17.4951   73.1564   -9.3425 N.ar    1  UNL1       -0.2743
     19 C          17.5749   72.2825   -8.2502 C.ar    1  UNL1        0.3323
     20 C          15.8362   73.6642   -7.2620 C.ar    1  UNL1        0.0869
     21 C          15.7716   74.4877   -8.3106 C.ar    1  UNL1        0.0795
     22 C          16.6562   74.2528   -9.4690 C.ar    1  UNL1        0.2626
     23 H          18.1179   72.9658  -10.1228 H       1  UNL1        0.1734
     24 O          21.8747   73.5033   -4.2569 O.3     1  UNL1       -0.2703
     25 P          23.0851   72.8470   -3.4104 P.3     1  UNL1        0.2208
     26 O          24.3673   73.7286   -3.8518 O.3     1  UNL1       -0.4371
     27 O          23.2492   71.3682   -3.6153 O.2     1  UNL1       -0.5170
     28 O          22.7978   73.2804   -1.8828 O.3     1  UNL1       -0.2858
     29 O          21.7454   71.5307   -0.6868 O.3     1  UNL1       -0.3226
     30 O          21.7189   74.6231    2.0909 O.3     1  UNL1       -0.3794
     31 O          21.1325   75.1488   -0.7173 O.3     1  UNL1       -0.3775
     32 O          21.1248   71.9255    2.0877 O.3     1  UNL1       -0.3792
     33 C          22.1873   73.8122    1.0169 C.3     1  UNL1        0.1718
     34 C          21.1942   73.8446   -0.1497 C.3     1  UNL1        0.1968
     35 C          22.3588   72.3760    1.5191 C.3     1  UNL1        0.1723
     36 C          21.6019   72.8439   -1.2381 C.3     1  UNL1        0.2706
     37 C          22.7232   71.4636    0.3500 C.3     1  UNL1        0.1830
     38 H          22.3757   74.5708    2.8060 H       1  UNL1        0.2105
     39 H          20.5006   75.1180   -1.4553 H       1  UNL1        0.2106
     40 H          20.4979   71.7500    1.3656 H       1  UNL1        0.2106
     41 O          23.4212   69.9000    1.9536 O.co2   1  UNL1       -0.5466
     42 O          22.2966   69.0963    0.1408 O.co2   1  UNL1       -0.5466
     43 C          22.7739   70.0291    0.7705 C.2     1  UNL1        0.0799
@<TRIPOS>UNITY_ATOM_ATTR
41 1
charge -1
@<TRIPOS>BOND
     1     1     4    1
     2     1    24    1
     3     1     2    1
     4     1     3    2
     5    25    28    1
     6    25    24    1
     7    25    26    1
     8    25    27    2
     9     6    11    1
    10     6    12    1
    11    29    36    1
    12    29    37    1
    13     7     9    1
    14     7    13    1
    15     8    10    1
    16     8    14    1
    17     4     5    1
    18    28    36    1
    19    30    33    1
    20    30    38    1
    21    31    34    1
    22    31    39    1
    23    32    35    1
    24    32    40    1
    25    41    43   ar
    26    15    19    2
    27    42    43   ar
    28    16    22    2
    29    17    12    1
    30    17    19   ar
    31    17    20   ar
    32    18    19   ar
    33    18    22   ar
    34    18    23    1
    35     9    10    1
    36     9    11    1
    37    10    12    1
    38    11     5    1
    39    33    34    1
    40    33    35    1
    41    34    36    1
    42    35    37    1
    43    37    43    1
    44    20    21   ar
    45    21    22   ar
@<TRIPOS>MOLECULE
UDP-glaA
 43 45 0 0 0
SMALL
GASTEIGER

@<TRIPOS>ATOM
      1 P          19.5324   70.4291   -2.3954 P.3     1  UNL1        0.2189
      2 O          18.3519   69.3345   -2.5566 O.3     1  UNL1       -0.4371
      3 O          19.0856   71.7736   -1.9007 O.2     1  UNL1       -0.5170
      4 O          20.2719   70.4194   -3.8337 O.3     1  UNL1       -0.3112
      5 C          19.5022   70.1339   -4.9892 C.3     1  UNL1        0.1811
      6 O          18.9830   72.4186   -5.5231 O.3     1  UNL1       -0.3308
      7 O          16.1491   71.4994   -5.8625 O.3     1  UNL1       -0.3794
      8 O          17.0327   71.6680   -8.4367 O.3     1  UNL1       -0.3779
      9 C          17.3633   70.8203   -6.1822 C.3     1  UNL1        0.1713
     10 C          17.9872   71.4174   -7.4259 C.3     1  UNL1        0.1895
     11 C          18.3907   71.1665   -5.1125 C.3     1  UNL1        0.1764
     12 C          18.6129   72.6916   -6.8847 C.3     1  UNL1        0.2383
     13 H          15.8071   71.1098   -5.0398 H       1  UNL1        0.2105
     14 H          16.6025   70.8219   -8.6493 H       1  UNL1        0.2106
     15 O          20.2346   70.9152   -8.3646 O.2     1  UNL1       -0.2464
     16 O          23.0816   74.3011   -9.6564 O.2     1  UNL1       -0.2670
     17 N          19.7833   73.0817   -7.6176 N.ar    1  UNL1       -0.2551
     18 N          21.6515   72.6024   -9.0065 N.ar    1  UNL1       -0.2743
     19 C          20.5286   72.1114   -8.3275 C.ar    1  UNL1        0.3323
     20 C          20.1826   74.4136   -7.6282 C.ar    1  UNL1        0.0869
     21 C          21.2555   74.8660   -8.2809 C.ar    1  UNL1        0.0795
     22 C          22.0886   73.9174   -9.0461 C.ar    1  UNL1        0.2626
     23 H          22.2027   71.9224   -9.5232 H       1  UNL1        0.1734
     24 O          20.5949   69.6773   -1.4357 O.3     1  UNL1       -0.2703
     25 P          21.8831   70.2378   -0.6363 P.3     1  UNL1        0.2208
     26 O          22.7485   70.9670   -1.7918 O.3     1  UNL1       -0.4371
     27 O          22.6348   69.1895    0.1330 O.2     1  UNL1       -0.5170
     28 O          21.3097   71.4452    0.2679 O.3     1  UNL1       -0.2858
     29 O          21.7015   73.7694    0.4772 O.3     1  UNL1       -0.3226
     30 O          21.4723   72.5637    4.4487 O.3     1  UNL1       -0.3794
     31 O          22.8753   70.9290    2.4826 O.3     1  UNL1       -0.3775
     32 O          21.6015   74.9628    3.0857 O.3     1  UNL1       -0.3792
     33 C          21.1883   72.5831    3.0525 C.3     1  UNL1        0.1718
     34 C          22.4523   72.2676    2.2456 C.3     1  UNL1        0.1968
     35 C          20.6575   73.9686    2.6743 C.3     1  UNL1        0.1723
     36 C          22.1991   72.4542    0.7444 C.3     1  UNL1        0.2706
     37 C          20.4816   74.0549    1.1598 C.3     1  UNL1        0.1830
     38 H          20.6467   72.7705    4.9189 H       1  UNL1        0.2105
     39 H          23.6701   70.7730    1.9452 H       1  UNL1        0.2106
     40 H          22.3639   74.9330    2.4831 H       1  UNL1        0.2106
     41 O          19.9839   76.2550    1.8042 O.co2   1  UNL1       -0.5466
     42 O          19.8889   75.7790   -0.4232 O.co2   1  UNL1       -0.5466
     43 C          20.0880   75.4330    0.7322 C.2     1  UNL1        0.0799
@<TRIPOS>UNITY_ATOM_ATTR
41 1
charge -1
@<TRIPOS>BOND
     1     1     4    1
     2     1    24    1
     3     1     2    1
     4     1     3    2
     5    25    28    1
     6    25    24    1
     7    25    26    1
     8    25    27    2
     9     6    11    1
    10     6    12    1
    11    29    36    1
    12    29    37    1
    13     7     9    1
    14     7    13    1
    15     8    10    1
    16     8    14    1
    17     4     5    1
    18    28    36    1
    19    30    33    1
    20    30    38    1
    21    31    34    1
    22    31    39    1
    23    32    35    1
    24    32    40    1
    25    41    43   ar
    26    15    19    2
    27    42    43   ar
    28    16    22    2
    29    17    12    1
    30    17    19   ar
    31    17    20   ar
    32    18    19   ar
    33    18    22   ar
    34    18    23    1
    35     9    10    1
    36     9    11    1
    37    10    12    1
    38    11     5    1
    39    33    34    1
    40    33    35    1
    41    34    36    1
    42    35    37    1
    43    37    43    1
    44    20    21   ar
    45    21    22   ar
