@<TRIPOS>MOLECULE
UD1
 46 48 0 0 0
SMALL
GASTEIGER

@<TRIPOS>ATOM
      1 P          20.9967   71.3688   -2.0925 P.3     1  UNL1        0.2189
      2 O          20.5756   72.7768   -1.9224 O.2     1  UNL1       -0.5170
      3 O          22.5289   71.3228   -2.5854 O.3     1  UNL1       -0.4371
      4 O          20.0589   70.6578   -3.1915 O.3     1  UNL1       -0.3112
      5 C          18.8856   70.2130   -2.5089 C.3     1  UNL1        0.1811
      6 C          17.1583   70.4309   -5.6547 C.3     1  UNL1        0.2383
      7 C          16.9411   68.9680   -5.1931 C.3     1  UNL1        0.1895
      8 O          15.6906   68.4639   -5.6634 O.3     1  UNL1       -0.3779
      9 C          16.9346   69.1114   -3.6489 C.3     1  UNL1        0.1713
     10 C          17.6602   70.4466   -3.3938 C.3     1  UNL1        0.1764
     11 O          18.0708   70.9633   -4.6711 O.3     1  UNL1       -0.3308
     12 O          15.5936   69.1612   -3.1567 O.3     1  UNL1       -0.3794
     13 H          15.6173   67.5540   -5.3438 H       1  UNL1        0.2106
     14 H          15.1759   68.3241   -3.3990 H       1  UNL1        0.2105
     15 N          17.7569   70.4710   -6.9893 N.ar    1  UNL1       -0.2551
     16 C          16.9650   70.4546   -8.0756 C.ar    1  UNL1        0.3323
     17 N          17.4880   70.4945   -9.3154 N.ar    1  UNL1       -0.2743
     18 C          18.8244   70.5426   -9.4878 C.ar    1  UNL1        0.2626
     19 C          19.6700   70.5544   -8.3531 C.ar    1  UNL1        0.0795
     20 C          19.1186   70.5190   -7.1210 C.ar    1  UNL1        0.0869
     21 O          15.7578   70.4114   -7.9363 O.2     1  UNL1       -0.2464
     22 O          19.2986   70.5739  -10.6084 O.2     1  UNL1       -0.2670
     23 H          16.9017   70.4867  -10.0876 H       1  UNL1        0.1734
     24 O          20.8601   70.5944   -0.6888 O.3     1  UNL1       -0.2703
     25 P          21.8636   71.3173    0.3406 P.3     1  UNL1        0.2208
     26 O          23.1937   70.6739    0.2666 O.2     1  UNL1       -0.5170
     27 O          21.2861   71.1835    1.8375 O.3     1  UNL1       -0.4371
     28 O          21.9987   72.8744   -0.0437 O.3     1  UNL1       -0.2865
     29 C          23.3121   73.2839    0.3413 C.3     1  UNL1        0.2611
     30 C          23.2087   74.3583    1.4253 C.3     1  UNL1        0.1582
     31 C          22.4099   75.5468    0.8785 C.3     1  UNL1        0.1625
     32 C          23.0514   76.0057   -0.4352 C.3     1  UNL1        0.1686
     33 C          23.1638   74.8074   -1.3801 C.3     1  UNL1        0.1760
     34 O          22.4334   76.6160    1.8259 O.3     1  UNL1       -0.3801
     35 O          22.2390   77.0157   -1.0365 O.3     1  UNL1       -0.3794
     36 O          23.9971   73.8080   -0.7943 O.3     1  UNL1       -0.3263
     37 H          21.9202   77.3405    1.4424 H       1  UNL1        0.2105
     38 H          22.6781   77.2748   -1.8591 H       1  UNL1        0.2105
     39 C          23.2343   73.4738    3.6949 C.2     1  UNL1        0.2231
     40 C          22.5321   72.9057    4.9018 C.3     1  UNL1        0.0946
     41 N          22.5270   73.8069    2.5981 N.am    1  UNL1       -0.2994
     42 O          24.4365   73.6304    3.7110 O.2     1  UNL1       -0.2751
     43 H          21.5649   73.6814    2.5850 H       1  UNL1        0.1496
     44 C          23.7738   75.2620   -2.7078 C.3     1  UNL1        0.1693
     45 O          25.1476   74.8721   -2.7595 O.3     1  UNL1       -0.3794
     46 H          25.4931   75.1770   -3.6094 H       1  UNL1        0.2105
@<TRIPOS>BOND
     1    29    30    1
     2    29    28    1
     3    29    36    1
     4    30    31    1
     5    30    41    1
     6    31    32    1
     7    31    34    1
     8    32    33    1
     9    32    35    1
    10    33    44    1
    11    33    36    1
    12    44    45    1
    13    39    40    1
    14    39    41   am
    15    39    42    2
    16    41    43    1
    17    28    25    1
    18    34    37    1
    19    35    38    1
    20    45    46    1
    21    15    16   ar
    22    15    20   ar
    23    15     6    1
    24    16    17   ar
    25    16    21    2
    26    17    18   ar
    27    17    23    1
    28    18    19   ar
    29    18    22    2
    30    19    20   ar
    31     6     7    1
    32     6    11    1
    33     7     8    1
    34     7     9    1
    35     8    13    1
    36     9    10    1
    37     9    12    1
    38    10    11    1
    39    10     5    1
    40    12    14    1
    41     5     4    1
    42     4     1    1
    43     1     2    2
    44     1     3    1
    45     1    24    1
    46    24    25    1
    47    25    26    2
    48    25    27    1
@<TRIPOS>MOLECULE
UD1
 46 48 0 0 0
SMALL
GASTEIGER

@<TRIPOS>ATOM
      1 P          23.1018   71.7335   -3.2334 P.3     1  UNL1        0.2189
      2 O          23.1440   72.9890   -2.4519 O.2     1  UNL1       -0.5170
      3 O          24.3947   70.8399   -2.8838 O.3     1  UNL1       -0.4371
      4 O          23.0999   72.0807   -4.8058 O.3     1  UNL1       -0.3112
      5 C          22.2594   73.2229   -4.9765 C.3     1  UNL1        0.1811
      6 C          19.4253   71.9922   -6.8151 C.3     1  UNL1        0.2383
      7 C          18.9951   73.4014   -6.3362 C.3     1  UNL1        0.1895
      8 O          18.0902   74.0022   -7.2633 O.3     1  UNL1       -0.3779
      9 C          20.3461   74.1626   -6.3092 C.3     1  UNL1        0.1713
     10 C          21.4040   73.0449   -6.2318 C.3     1  UNL1        0.1764
     11 O          20.7016   71.7919   -6.1712 O.3     1  UNL1       -0.3308
     12 O          20.5098   74.9337   -7.5014 O.3     1  UNL1       -0.3794
     13 H          17.8619   74.8723   -6.9082 H       1  UNL1        0.2106
     14 H          19.7859   75.5737   -7.5217 H       1  UNL1        0.2105
     15 N          18.4629   70.9795   -6.3796 N.ar    1  UNL1       -0.2551
     16 C          17.5038   70.5645   -7.2254 C.ar    1  UNL1        0.3323
     17 N          16.6077   69.6314   -6.8531 N.ar    1  UNL1       -0.2743
     18 C          16.6532   69.1017   -5.6141 C.ar    1  UNL1        0.2626
     19 C          17.6540   69.5339   -4.7116 C.ar    1  UNL1        0.0795
     20 C          18.5435   70.4672   -5.1128 C.ar    1  UNL1        0.0869
     21 O          17.4498   71.0327   -8.3463 O.2     1  UNL1       -0.2464
     22 O          15.8406   68.2615   -5.2748 O.2     1  UNL1       -0.2670
     23 H          15.9255   69.3403   -7.4777 H       1  UNL1        0.1734
     24 O          21.7667   70.9155   -2.8631 O.3     1  UNL1       -0.2703
     25 P          21.1694   71.5814   -1.5255 P.3     1  UNL1        0.2208
     26 O          20.2488   70.6277   -0.8685 O.2     1  UNL1       -0.5170
     27 O          20.3675   72.9247   -1.9060 O.3     1  UNL1       -0.4371
     28 O          22.3736   71.9435   -0.5209 O.3     1  UNL1       -0.2865
     29 C          21.9519   71.5565    0.7881 C.3     1  UNL1        0.2611
     30 C          21.5407   72.8021    1.5751 C.3     1  UNL1        0.1582
     31 C          22.7330   73.7623    1.6525 C.3     1  UNL1        0.1625
     32 C          23.9382   73.0027    2.2171 C.3     1  UNL1        0.1686
     33 C          24.1704   71.7433    1.3796 C.3     1  UNL1        0.1760
     34 O          22.4098   74.8589    2.5094 O.3     1  UNL1       -0.3801
     35 O          25.0974   73.8361    2.1610 O.3     1  UNL1       -0.3794
     36 O          23.0248   70.8957    1.4557 O.3     1  UNL1       -0.3263
     37 H          23.1853   75.4364    2.5289 H       1  UNL1        0.2105
     38 H          25.8309   73.3199    2.5243 H       1  UNL1        0.2105
     39 C          19.4262   74.0109    1.6200 C.2     1  UNL1        0.2231
     40 C          18.2750   74.6899    0.9228 C.3     1  UNL1        0.0946
     41 N          20.4224   73.4622    0.8983 N.am    1  UNL1       -0.2994
     42 O          19.4555   73.9581    2.8310 O.2     1  UNL1       -0.2751
     43 H          20.3991   73.5041   -0.0708 H       1  UNL1        0.1496
     44 C          25.3921   70.9941    1.9154 C.3     1  UNL1        0.1693
     45 O          24.9655   69.8158    2.6023 O.3     1  UNL1       -0.3794
     46 H          25.7635   69.3747    2.9234 H       1  UNL1        0.2105
@<TRIPOS>BOND
     1    29    30    1
     2    29    28    1
     3    29    36    1
     4    30    31    1
     5    30    41    1
     6    31    32    1
     7    31    34    1
     8    32    33    1
     9    32    35    1
    10    33    44    1
    11    33    36    1
    12    44    45    1
    13    39    40    1
    14    39    41   am
    15    39    42    2
    16    41    43    1
    17    28    25    1
    18    34    37    1
    19    35    38    1
    20    45    46    1
    21    15    16   ar
    22    15    20   ar
    23    15     6    1
    24    16    17   ar
    25    16    21    2
    26    17    18   ar
    27    17    23    1
    28    18    19   ar
    29    18    22    2
    30    19    20   ar
    31     6     7    1
    32     6    11    1
    33     7     8    1
    34     7     9    1
    35     8    13    1
    36     9    10    1
    37     9    12    1
    38    10    11    1
    39    10     5    1
    40    12    14    1
    41     5     4    1
    42     4     1    1
    43     1     2    2
    44     1     3    1
    45     1    24    1
    46    24    25    1
    47    25    26    2
    48    25    27    1
@<TRIPOS>MOLECULE
UD1
 46 48 0 0 0
SMALL
GASTEIGER

@<TRIPOS>ATOM
      1 P          22.9215   71.6601   -2.6047 P.3     1  UNL1        0.2189
      2 O          23.2433   73.0605   -2.2526 O.2     1  UNL1       -0.5170
      3 O          24.2756   70.8786   -2.9894 O.3     1  UNL1       -0.4371
      4 O          21.9163   71.6411   -3.8626 O.3     1  UNL1       -0.3112
      5 C          22.5501   72.3770   -4.9100 C.3     1  UNL1        0.1811
      6 C          19.6100   71.4965   -6.7830 C.3     1  UNL1        0.2383
      7 C          19.3399   72.9412   -6.2929 C.3     1  UNL1        0.1895
      8 O          18.5180   73.6504   -7.2207 O.3     1  UNL1       -0.3779
      9 C          20.7689   73.5422   -6.2477 C.3     1  UNL1        0.1713
     10 C          21.6911   72.3100   -6.1737 C.3     1  UNL1        0.1764
     11 O          20.8493   71.1452   -6.1314 O.3     1  UNL1       -0.3308
     12 O          21.0304   74.3006   -7.4306 O.3     1  UNL1       -0.3794
     13 H          18.3878   74.5376   -6.8584 H       1  UNL1        0.2106
     14 H          20.3848   75.0195   -7.4499 H       1  UNL1        0.2105
     15 N          18.5342   70.5967   -6.3654 N.ar    1  UNL1       -0.2551
     16 C          17.6377   70.1653   -7.2696 C.ar    1  UNL1        0.3323
     17 N          16.6401   69.3341   -6.9145 N.ar    1  UNL1       -0.2743
     18 C          16.5186   68.9260   -5.6353 C.ar    1  UNL1        0.2626
     19 C          17.4519   69.3773   -4.6719 C.ar    1  UNL1        0.0795
     20 C          18.4459   70.2064   -5.0563 C.ar    1  UNL1        0.0869
     21 O          17.7341   70.5245   -8.4273 O.2     1  UNL1       -0.2464
     22 O          15.6141   68.1783   -5.3122 O.2     1  UNL1       -0.2670
     23 H          16.0052   69.0291   -7.5809 H       1  UNL1        0.1734
     24 O          22.2223   70.9379   -1.3484 O.3     1  UNL1       -0.2703
     25 P          20.7398   71.5515   -1.2254 P.3     1  UNL1        0.2208
     26 O          19.7492   70.5355   -1.6440 O.2     1  UNL1       -0.5170
     27 O          20.6135   72.8460   -2.1744 O.3     1  UNL1       -0.4371
     28 O          20.4590   71.9776    0.3011 O.3     1  UNL1       -0.2865
     29 C          21.2628   73.1290    0.5647 C.3     1  UNL1        0.2611
     30 C          22.0836   72.8921    1.8336 C.3     1  UNL1        0.1582
     31 C          21.1311   72.6180    3.0028 C.3     1  UNL1        0.1625
     32 C          20.1162   73.7630    3.0870 C.3     1  UNL1        0.1686
     33 C          19.4415   73.9321    1.7241 C.3     1  UNL1        0.1760
     34 O          21.8759   72.5434    4.2198 O.3     1  UNL1       -0.3801
     35 O          19.1307   73.4564    4.0750 O.3     1  UNL1       -0.3794
     36 O          20.4197   74.2655    0.7400 O.3     1  UNL1       -0.3263
     37 H          21.2393   72.3700    4.9268 H       1  UNL1        0.2105
     38 H          18.5130   74.2011    4.0945 H       1  UNL1        0.2105
     39 C          24.2639   71.9273    1.3338 C.2     1  UNL1        0.2231
     40 C          25.1711   70.7403    1.1326 C.3     1  UNL1        0.0946
     41 N          22.9654   71.7394    1.6386 N.am    1  UNL1       -0.2994
     42 O          24.7028   73.0519    1.2205 O.2     1  UNL1       -0.2751
     43 H          22.6139   70.8395    1.7290 H       1  UNL1        0.1496
     44 C          18.4024   75.0523    1.8064 C.3     1  UNL1        0.1693
     45 O          18.0375   75.2648    3.1716 O.3     1  UNL1       -0.3794
     46 H          17.3829   75.9761    3.1787 H       1  UNL1        0.2105
@<TRIPOS>BOND
     1    29    30    1
     2    29    28    1
     3    29    36    1
     4    30    31    1
     5    30    41    1
     6    31    32    1
     7    31    34    1
     8    32    33    1
     9    32    35    1
    10    33    44    1
    11    33    36    1
    12    44    45    1
    13    39    40    1
    14    39    41   am
    15    39    42    2
    16    41    43    1
    17    28    25    1
    18    34    37    1
    19    35    38    1
    20    45    46    1
    21    15    16   ar
    22    15    20   ar
    23    15     6    1
    24    16    17   ar
    25    16    21    2
    26    17    18   ar
    27    17    23    1
    28    18    19   ar
    29    18    22    2
    30    19    20   ar
    31     6     7    1
    32     6    11    1
    33     7     8    1
    34     7     9    1
    35     8    13    1
    36     9    10    1
    37     9    12    1
    38    10    11    1
    39    10     5    1
    40    12    14    1
    41     5     4    1
    42     4     1    1
    43     1     2    2
    44     1     3    1
    45     1    24    1
    46    24    25    1
    47    25    26    2
    48    25    27    1
@<TRIPOS>MOLECULE
UD1
 46 48 0 0 0
SMALL
GASTEIGER

@<TRIPOS>ATOM
      1 P          20.5512   71.0365   -3.1847 P.3     1  UNL1        0.2189
      2 O          20.2079   72.4611   -2.9816 O.2     1  UNL1       -0.5170
      3 O          21.0268   70.8106   -4.7063 O.3     1  UNL1       -0.4371
      4 O          19.2571   70.1256   -2.8872 O.3     1  UNL1       -0.3112
      5 C          18.2058   71.0130   -2.5030 C.3     1  UNL1        0.1811
      6 C          16.7706   70.5468   -5.7665 C.3     1  UNL1        0.2383
      7 C          16.8181   69.1235   -5.1564 C.3     1  UNL1        0.1895
      8 O          15.7477   68.3188   -5.6523 O.3     1  UNL1       -0.3779
      9 C          16.6386   69.4117   -3.6432 C.3     1  UNL1        0.1713
     10 C          17.0462   70.8901   -3.4927 C.3     1  UNL1        0.1764
     11 O          17.4582   71.3562   -4.7890 O.3     1  UNL1       -0.3308
     12 O          15.2765   69.2196   -3.2554 O.3     1  UNL1       -0.3794
     13 H          15.8344   67.4499   -5.2363 H       1  UNL1        0.2106
     14 H          15.0649   68.2926   -3.4287 H       1  UNL1        0.2105
     15 N          17.4695   70.5846   -7.0516 N.ar    1  UNL1       -0.2551
     16 C          16.7652   70.5234   -8.1951 C.ar    1  UNL1        0.3323
     17 N          17.3813   70.5601   -9.3915 N.ar    1  UNL1       -0.2743
     18 C          18.7248   70.6503   -9.4614 C.ar    1  UNL1        0.2626
     19 C          19.4789   70.7095   -8.2653 C.ar    1  UNL1        0.0795
     20 C          18.8350   70.6762   -7.0788 C.ar    1  UNL1        0.0869
     21 O          15.5528   70.4419   -8.1485 O.2     1  UNL1       -0.2464
     22 O          19.2833   70.6788  -10.5424 O.2     1  UNL1       -0.2670
     23 H          16.8573   70.5197  -10.2063 H       1  UNL1        0.1734
     24 O          21.7402   70.6227   -2.1827 O.3     1  UNL1       -0.2703
     25 P          22.9646   71.6250   -2.4752 P.3     1  UNL1        0.2208
     26 O          22.5564   72.6184   -3.4928 O.2     1  UNL1       -0.5170
     27 O          24.2265   70.7869   -3.0205 O.3     1  UNL1       -0.4371
     28 O          23.3736   72.3854   -1.1169 O.3     1  UNL1       -0.2865
     29 C          22.5907   71.8115   -0.0687 C.3     1  UNL1        0.2611
     30 C          21.9200   72.9298    0.7310 C.3     1  UNL1        0.1582
     31 C          23.0006   73.8525    1.3058 C.3     1  UNL1        0.1625
     32 C          24.0048   73.0017    2.0906 C.3     1  UNL1        0.1686
     33 C          24.5206   71.8796    1.1872 C.3     1  UNL1        0.1760
     34 O          22.3976   74.8119    2.1760 O.3     1  UNL1       -0.3801
     35 O          25.0984   73.8196    2.5110 O.3     1  UNL1       -0.3794
     36 O          23.4345   71.0446    0.7876 O.3     1  UNL1       -0.3263
     37 H          23.1115   75.3701    2.5139 H       1  UNL1        0.2105
     38 H          25.7055   73.2455    2.9993 H       1  UNL1        0.2105
     39 C          21.4792   74.8289   -0.7296 C.2     1  UNL1        0.2231
     40 C          20.5683   75.6195   -1.6338 C.3     1  UNL1        0.0946
     41 N          21.0357   73.6979   -0.1478 N.am    1  UNL1       -0.2994
     42 O          22.6115   75.2112   -0.5252 O.2     1  UNL1       -0.2751
     43 H          20.1294   73.3918   -0.3111 H       1  UNL1        0.1496
     44 C          25.5490   71.0433    1.9514 C.3     1  UNL1        0.1693
     45 O          24.8764   70.0304    2.7024 O.3     1  UNL1       -0.3794
     46 H          25.5586   69.5278    3.1679 H       1  UNL1        0.2105
@<TRIPOS>BOND
     1    29    30    1
     2    29    28    1
     3    29    36    1
     4    30    31    1
     5    30    41    1
     6    31    32    1
     7    31    34    1
     8    32    33    1
     9    32    35    1
    10    33    44    1
    11    33    36    1
    12    44    45    1
    13    39    40    1
    14    39    41   am
    15    39    42    2
    16    41    43    1
    17    28    25    1
    18    34    37    1
    19    35    38    1
    20    45    46    1
    21    15    16   ar
    22    15    20   ar
    23    15     6    1
    24    16    17   ar
    25    16    21    2
    26    17    18   ar
    27    17    23    1
    28    18    19   ar
    29    18    22    2
    30    19    20   ar
    31     6     7    1
    32     6    11    1
    33     7     8    1
    34     7     9    1
    35     8    13    1
    36     9    10    1
    37     9    12    1
    38    10    11    1
    39    10     5    1
    40    12    14    1
    41     5     4    1
    42     4     1    1
    43     1     2    2
    44     1     3    1
    45     1    24    1
    46    24    25    1
    47    25    26    2
    48    25    27    1
@<TRIPOS>MOLECULE
UD1
 46 48 0 0 0
SMALL
GASTEIGER

@<TRIPOS>ATOM
      1 P          16.8144   69.7872   -2.5129 P.3     1  UNL1        0.2189
      2 O          16.5800   71.2378   -2.6854 O.2     1  UNL1       -0.5170
      3 O          16.3574   69.0074   -3.8453 O.3     1  UNL1       -0.4371
      4 O          15.9588   69.2514   -1.2585 O.3     1  UNL1       -0.3112
      5 C          14.8586   70.1476   -1.0948 C.3     1  UNL1        0.1811
      6 C          12.3837   68.0208    0.4148 C.3     1  UNL1        0.2383
      7 C          11.8844   69.4597    0.6988 C.3     1  UNL1        0.1895
      8 O          10.4584   69.5031    0.7603 O.3     1  UNL1       -0.3779
      9 C          12.4090   70.2362   -0.5369 C.3     1  UNL1        0.1713
     10 C          13.5514   69.3539   -1.0763 C.3     1  UNL1        0.1764
     11 O          13.6766   68.2261   -0.1934 O.3     1  UNL1       -0.3308
     12 O          11.3753   70.3798   -1.5134 O.3     1  UNL1       -0.3794
     13 H          10.2135   70.4215    0.9393 H       1  UNL1        0.2106
     14 H          10.6665   70.8882   -1.0971 H       1  UNL1        0.2105
     15 N          12.5132   67.2610    1.6587 N.ar    1  UNL1       -0.2551
     16 C          11.5002   66.4789    2.0702 C.ar    1  UNL1        0.3323
     17 N          11.5932   65.7657    3.2082 N.ar    1  UNL1       -0.2743
     18 C          12.7085   65.8328    3.9629 C.ar    1  UNL1        0.2626
     19 C          13.7803   66.6569    3.5444 C.ar    1  UNL1        0.0795
     20 C          13.6625   67.3573    2.3960 C.ar    1  UNL1        0.0869
     21 O          10.4878   66.4079    1.4004 O.2     1  UNL1       -0.2464
     22 O          12.7918   65.1922    4.9944 O.2     1  UNL1       -0.2670
     23 H          10.8546   65.2030    3.4875 H       1  UNL1        0.1734
     24 O          18.3793   69.5245   -2.2462 O.3     1  UNL1       -0.2703
     25 P          19.1363   70.9200   -2.5084 P.3     1  UNL1        0.2208
     26 O          20.5986   70.7107   -2.4273 O.2     1  UNL1       -0.5170
     27 O          18.6860   71.9930   -1.3956 O.3     1  UNL1       -0.4371
     28 O          18.7537   71.4731   -3.9707 O.3     1  UNL1       -0.2865
     29 C          19.6345   70.8363   -4.8981 C.3     1  UNL1        0.2611
     30 C          20.4473   71.9018   -5.6358 C.3     1  UNL1        0.1582
     31 C          19.4875   72.8493   -6.3642 C.3     1  UNL1        0.1625
     32 C          18.5518   72.0162   -7.2465 C.3     1  UNL1        0.1686
     33 C          17.8796   70.9438   -6.3865 C.3     1  UNL1        0.1760
     34 O          20.2349   73.7567   -7.1763 O.3     1  UNL1       -0.3801
     35 O          17.5555   72.8642   -7.8207 O.3     1  UNL1       -0.3794
     36 O          18.8703   70.0783   -5.8335 O.3     1  UNL1       -0.3263
     37 H          19.5934   74.3327   -7.6146 H       1  UNL1        0.2105
     38 H          16.9890   72.3004   -8.3664 H       1  UNL1        0.2105
     39 C          22.5710   72.8203   -4.8740 C.2     1  UNL1        0.2231
     40 C          23.3958   73.6006   -3.8824 C.3     1  UNL1        0.0946
     41 N          21.2488   72.6602   -4.6731 N.am    1  UNL1       -0.2994
     42 O          23.0979   72.3357   -5.8526 O.2     1  UNL1       -0.2751
     43 H          20.8269   73.0476   -3.8898 H       1  UNL1        0.1496
     44 C          16.9181   70.1266   -7.2519 C.3     1  UNL1        0.1693
     45 O          15.8632   69.6119   -6.4367 O.3     1  UNL1       -0.3794
     46 H          15.2817   69.1045   -7.0190 H       1  UNL1        0.2105
@<TRIPOS>BOND
     1    29    30    1
     2    29    28    1
     3    29    36    1
     4    30    31    1
     5    30    41    1
     6    31    32    1
     7    31    34    1
     8    32    33    1
     9    32    35    1
    10    33    44    1
    11    33    36    1
    12    44    45    1
    13    39    40    1
    14    39    41   am
    15    39    42    2
    16    41    43    1
    17    28    25    1
    18    34    37    1
    19    35    38    1
    20    45    46    1
    21    15    16   ar
    22    15    20   ar
    23    15     6    1
    24    16    17   ar
    25    16    21    2
    26    17    18   ar
    27    17    23    1
    28    18    19   ar
    29    18    22    2
    30    19    20   ar
    31     6     7    1
    32     6    11    1
    33     7     8    1
    34     7     9    1
    35     8    13    1
    36     9    10    1
    37     9    12    1
    38    10    11    1
    39    10     5    1
    40    12    14    1
    41     5     4    1
    42     4     1    1
    43     1     2    2
    44     1     3    1
    45     1    24    1
    46    24    25    1
    47    25    26    2
    48    25    27    1
@<TRIPOS>MOLECULE
UD1
 46 48 0 0 0
SMALL
GASTEIGER

@<TRIPOS>ATOM
      1 P          20.5740   71.9074   -1.6628 P.3     1  UNL1        0.2189
      2 O          20.6680   72.9676   -2.6903 O.2     1  UNL1       -0.5170
      3 O          21.5926   70.7148   -2.0273 O.3     1  UNL1       -0.4371
      4 O          19.0702   71.3333   -1.6208 O.3     1  UNL1       -0.3112
      5 C          18.9967   70.2935   -2.5973 C.3     1  UNL1        0.1811
      6 C          17.2187   70.4254   -5.7195 C.3     1  UNL1        0.2383
      7 C          17.0212   68.9717   -5.2215 C.3     1  UNL1        0.1895
      8 O          15.7677   68.4469   -5.6604 O.3     1  UNL1       -0.3779
      9 C          17.0375   69.1503   -3.6810 C.3     1  UNL1        0.1713
     10 C          17.7557   70.4968   -3.4678 C.3     1  UNL1        0.1764
     11 O          18.1419   70.9875   -4.7629 O.3     1  UNL1       -0.3308
     12 O          15.7040   69.2005   -3.1690 O.3     1  UNL1       -0.3794
     13 H          15.7071   67.5439   -5.3191 H       1  UNL1        0.2106
     14 H          15.2897   68.3546   -3.3856 H       1  UNL1        0.2105
     15 N          17.7961   70.4399   -7.0641 N.ar    1  UNL1       -0.2551
     16 C          16.9862   70.4653   -8.1368 C.ar    1  UNL1        0.3323
     17 N          17.4896   70.4830   -9.3852 N.ar    1  UNL1       -0.2743
     18 C          18.8236   70.4662   -9.5801 C.ar    1  UNL1        0.2626
     19 C          19.6877   70.4334   -8.4598 C.ar    1  UNL1        0.0795
     20 C          19.1561   70.4215   -7.2186 C.ar    1  UNL1        0.0869
     21 O          15.7808   70.4808   -7.9772 O.2     1  UNL1       -0.2464
     22 O          19.2799   70.4774  -10.7085 O.2     1  UNL1       -0.2670
     23 H          16.8907   70.5061  -10.1474 H       1  UNL1        0.1734
     24 O          20.9551   72.5190   -0.2242 O.3     1  UNL1       -0.2703
     25 P          22.1669   71.6309    0.3523 P.3     1  UNL1        0.2208
     26 O          23.0461   71.2137   -0.7621 O.2     1  UNL1       -0.5170
     27 O          21.5749   70.3255    1.0855 O.3     1  UNL1       -0.4371
     28 O          23.0153   72.4996    1.4087 O.3     1  UNL1       -0.2865
     29 C          23.1710   71.6935    2.5780 C.3     1  UNL1        0.2611
     30 C          22.5988   72.4388    3.7851 C.3     1  UNL1        0.1582
     31 C          23.3358   73.7732    3.9457 C.3     1  UNL1        0.1625
     32 C          24.8421   73.4974    4.0037 C.3     1  UNL1        0.1686
     33 C          25.2456   72.6747    2.7783 C.3     1  UNL1        0.1760
     34 O          22.9155   74.4100    5.1537 O.3     1  UNL1       -0.3801
     35 O          25.5550   74.7356    4.0056 O.3     1  UNL1       -0.3794
     36 O          24.5557   71.4254    2.7878 O.3     1  UNL1       -0.3263
     37 H          23.4024   75.2434    5.2142 H       1  UNL1        0.2105
     38 H          26.4968   74.5161    4.0419 H       1  UNL1        0.2105
     39 C          20.7596   73.8720    3.0799 C.2     1  UNL1        0.2231
     40 C          19.2901   74.1292    2.8641 C.3     1  UNL1        0.0946
     41 N          21.1714   72.6890    3.5749 N.am    1  UNL1       -0.2994
     42 O          21.5716   74.7306    2.8084 O.2     1  UNL1       -0.2751
     43 H          20.5218   72.0018    3.7924 H       1  UNL1        0.1496
     44 C          26.7542   72.4213    2.8099 C.3     1  UNL1        0.1693
     45 O          27.0096   71.0345    2.5785 O.3     1  UNL1       -0.3794
     46 H          27.9690   70.9181    2.6068 H       1  UNL1        0.2105
@<TRIPOS>BOND
     1    29    30    1
     2    29    28    1
     3    29    36    1
     4    30    31    1
     5    30    41    1
     6    31    32    1
     7    31    34    1
     8    32    33    1
     9    32    35    1
    10    33    44    1
    11    33    36    1
    12    44    45    1
    13    39    40    1
    14    39    41   am
    15    39    42    2
    16    41    43    1
    17    28    25    1
    18    34    37    1
    19    35    38    1
    20    45    46    1
    21    15    16   ar
    22    15    20   ar
    23    15     6    1
    24    16    17   ar
    25    16    21    2
    26    17    18   ar
    27    17    23    1
    28    18    19   ar
    29    18    22    2
    30    19    20   ar
    31     6     7    1
    32     6    11    1
    33     7     8    1
    34     7     9    1
    35     8    13    1
    36     9    10    1
    37     9    12    1
    38    10    11    1
    39    10     5    1
    40    12    14    1
    41     5     4    1
    42     4     1    1
    43     1     2    2
    44     1     3    1
    45     1    24    1
    46    24    25    1
    47    25    26    2
    48    25    27    1
@<TRIPOS>MOLECULE
UD1
 46 48 0 0 0
SMALL
GASTEIGER

@<TRIPOS>ATOM
      1 P          20.6871   71.4052   -1.1073 P.3     1  UNL1        0.2189
      2 O          21.0065   72.8362   -0.9097 O.2     1  UNL1       -0.5170
      3 O          21.6203   70.8029   -2.2730 O.3     1  UNL1       -0.4371
      4 O          19.1401   71.2543   -1.5278 O.3     1  UNL1       -0.3112
      5 C          19.0848   70.2610   -2.5528 C.3     1  UNL1        0.1811
      6 C          17.2439   70.4180   -5.6372 C.3     1  UNL1        0.2383
      7 C          17.0658   68.9573   -5.1528 C.3     1  UNL1        0.1895
      8 O          15.8072   68.4294   -5.5728 O.3     1  UNL1       -0.3779
      9 C          17.1117   69.1177   -3.6109 C.3     1  UNL1        0.1713
     10 C          17.8254   70.4664   -3.3959 C.3     1  UNL1        0.1764
     11 O          18.1825   70.9749   -4.6925 O.3     1  UNL1       -0.3308
     12 O          15.7885   69.1530   -3.0719 O.3     1  UNL1       -0.3794
     13 H          15.7592   67.5220   -5.2413 H       1  UNL1        0.2106
     14 H          15.3753   68.3070   -3.2903 H       1  UNL1        0.2105
     15 N          17.7942   70.4522   -6.9928 N.ar    1  UNL1       -0.2551
     16 C          16.9637   70.4343   -8.0497 C.ar    1  UNL1        0.3323
     17 N          17.4418   70.4688   -9.3077 N.ar    1  UNL1       -0.2743
     18 C          18.7712   70.5129   -9.5283 C.ar    1  UNL1        0.2626
     19 C          19.6571   70.5262   -8.4248 C.ar    1  UNL1        0.0795
     20 C          19.1504   70.4963   -7.1735 C.ar    1  UNL1        0.0869
     21 O          15.7621   70.3947   -7.8669 O.2     1  UNL1       -0.2464
     22 O          19.2047   70.5394  -10.6653 O.2     1  UNL1       -0.2670
     23 H          16.8280   70.4600  -10.0582 H       1  UNL1        0.1734
     24 O          20.9516   70.6023    0.2618 O.3     1  UNL1       -0.2703
     25 P          22.2962   71.2094    0.9044 P.3     1  UNL1        0.2208
     26 O          22.8781   72.2067   -0.0205 O.2     1  UNL1       -0.5170
     27 O          23.3571   70.0235    1.1504 O.3     1  UNL1       -0.4371
     28 O          21.9497   71.9171    2.3078 O.3     1  UNL1       -0.2865
     29 C          22.2717   73.3016    2.1644 C.3     1  UNL1        0.2611
     30 C          23.2654   73.7047    3.2553 C.3     1  UNL1        0.1582
     31 C          22.6396   73.4340    4.6282 C.3     1  UNL1        0.1625
     32 C          21.2792   74.1361    4.6938 C.3     1  UNL1        0.1686
     33 C          20.4340   73.6981    3.4958 C.3     1  UNL1        0.1760
     34 O          23.4950   73.9433    5.6531 O.3     1  UNL1       -0.3801
     35 O          20.6141   73.7773    5.9064 O.3     1  UNL1       -0.3794
     36 O          21.0824   74.0795    2.2831 O.3     1  UNL1       -0.3263
     37 H          23.0640   73.7517    6.4974 H       1  UNL1        0.2105
     38 H          19.7639   74.2394    5.9064 H       1  UNL1        0.2105
     39 C          25.6940   73.5150    3.2557 C.2     1  UNL1        0.2231
     40 C          26.9584   72.7075    3.1085 C.3     1  UNL1        0.0946
     41 N          24.4939   72.9205    3.1129 N.am    1  UNL1       -0.2994
     42 O          25.7571   74.7006    3.5020 O.2     1  UNL1       -0.2751
     43 H          24.4431   71.9718    2.9155 H       1  UNL1        0.1496
     44 C          19.0608   74.3689    3.5694 C.3     1  UNL1        0.1693
     45 O          19.1974   75.6735    4.1364 O.3     1  UNL1       -0.3794
     46 H          18.3118   76.0603    4.1650 H       1  UNL1        0.2105
@<TRIPOS>BOND
     1    29    30    1
     2    29    28    1
     3    29    36    1
     4    30    31    1
     5    30    41    1
     6    31    32    1
     7    31    34    1
     8    32    33    1
     9    32    35    1
    10    33    44    1
    11    33    36    1
    12    44    45    1
    13    39    40    1
    14    39    41   am
    15    39    42    2
    16    41    43    1
    17    28    25    1
    18    34    37    1
    19    35    38    1
    20    45    46    1
    21    15    16   ar
    22    15    20   ar
    23    15     6    1
    24    16    17   ar
    25    16    21    2
    26    17    18   ar
    27    17    23    1
    28    18    19   ar
    29    18    22    2
    30    19    20   ar
    31     6     7    1
    32     6    11    1
    33     7     8    1
    34     7     9    1
    35     8    13    1
    36     9    10    1
    37     9    12    1
    38    10    11    1
    39    10     5    1
    40    12    14    1
    41     5     4    1
    42     4     1    1
    43     1     2    2
    44     1     3    1
    45     1    24    1
    46    24    25    1
    47    25    26    2
    48    25    27    1
@<TRIPOS>MOLECULE
UD1
 46 48 0 0 0
SMALL
GASTEIGER

@<TRIPOS>ATOM
      1 P          22.9597   72.9817   -4.2296 P.3     1  UNL1        0.2189
      2 O          24.1949   72.1760   -4.1119 O.2     1  UNL1       -0.5170
      3 O          23.0344   73.8877   -5.5585 O.3     1  UNL1       -0.4371
      4 O          22.8159   73.9341   -2.9392 O.3     1  UNL1       -0.3112
      5 C          21.7595   73.3955   -2.1428 C.3     1  UNL1        0.1811
      6 C          23.6254   71.8206    0.4964 C.3     1  UNL1        0.2383
      7 C          22.1994   71.9910    1.0775 C.3     1  UNL1        0.1895
      8 O          21.8980   70.9490    2.0062 O.3     1  UNL1       -0.3779
      9 C          21.3148   71.8746   -0.1911 C.3     1  UNL1        0.1713
     10 C          22.2785   72.1948   -1.3501 C.3     1  UNL1        0.1764
     11 O          23.5574   72.5066   -0.7718 O.3     1  UNL1       -0.3308
     12 O          20.7929   70.5501   -0.3173 O.3     1  UNL1       -0.3794
     13 H          21.0014   71.1128    2.3298 H       1  UNL1        0.2106
     14 H          20.2482   70.3889    0.4647 H       1  UNL1        0.2105
     15 N          24.6199   72.4461    1.3689 N.ar    1  UNL1       -0.2551
     16 C          25.4477   71.6752    2.0954 C.ar    1  UNL1        0.3323
     17 N          26.3747   72.2233    2.9033 N.ar    1  UNL1       -0.2743
     18 C          26.4815   73.5636    3.0037 C.ar    1  UNL1        0.2626
     19 C          25.6124   74.3869    2.2490 C.ar    1  UNL1        0.0795
     20 C          24.6953   73.8109    1.4424 C.ar    1  UNL1        0.0869
     21 O          25.3637   70.4648    2.0156 O.2     1  UNL1       -0.2464
     22 O          27.3160   74.0602    3.7375 O.2     1  UNL1       -0.2670
     23 H          26.9667   71.6521    3.4166 H       1  UNL1        0.1734
     24 O          21.6864   72.0020   -4.3177 O.3     1  UNL1       -0.2703
     25 P          20.7636   72.5459   -5.5185 P.3     1  UNL1        0.2208
     26 O          21.3392   72.1217   -6.8138 O.2     1  UNL1       -0.5170
     27 O          20.6997   74.1536   -5.4614 O.3     1  UNL1       -0.4371
     28 O          19.2777   71.9457   -5.3694 O.3     1  UNL1       -0.2865
     29 C          19.3772   70.5359   -5.5787 C.3     1  UNL1        0.2611
     30 C          18.2777   70.0898   -6.5443 C.3     1  UNL1        0.1582
     31 C          16.9119   70.4537   -5.9512 C.3     1  UNL1        0.1625
     32 C          16.8181   69.8653   -4.5394 C.3     1  UNL1        0.1686
     33 C          18.0263   70.3309   -3.7241 C.3     1  UNL1        0.1760
     34 O          15.8744   69.9107   -6.7698 O.3     1  UNL1       -0.3801
     35 O          15.6151   70.3150   -3.9132 O.3     1  UNL1       -0.3794
     36 O          19.2285   69.8600   -4.3320 O.3     1  UNL1       -0.3263
     37 H          15.0350   70.1633   -6.3611 H       1  UNL1        0.2105
     38 H          15.5967   69.9228   -3.0287 H       1  UNL1        0.2105
     39 C          19.0392   70.1261   -8.8579 C.2     1  UNL1        0.2231
     40 C          19.2172   70.8249  -10.1817 C.3     1  UNL1        0.0946
     41 N          18.4505   70.7681   -7.8305 N.am    1  UNL1       -0.2994
     42 O          19.4266   68.9858   -8.7174 O.2     1  UNL1       -0.2751
     43 H          18.1406   71.6807   -7.9426 H       1  UNL1        0.1496
     44 C          17.9254   69.7749   -2.3022 C.3     1  UNL1        0.1693
     45 O          17.2665   68.5072   -2.3316 O.3     1  UNL1       -0.3794
     46 H          17.2235   68.1930   -1.4184 H       1  UNL1        0.2105
@<TRIPOS>BOND
     1    29    30    1
     2    29    28    1
     3    29    36    1
     4    30    31    1
     5    30    41    1
     6    31    32    1
     7    31    34    1
     8    32    33    1
     9    32    35    1
    10    33    44    1
    11    33    36    1
    12    44    45    1
    13    39    40    1
    14    39    41   am
    15    39    42    2
    16    41    43    1
    17    28    25    1
    18    34    37    1
    19    35    38    1
    20    45    46    1
    21    15    16   ar
    22    15    20   ar
    23    15     6    1
    24    16    17   ar
    25    16    21    2
    26    17    18   ar
    27    17    23    1
    28    18    19   ar
    29    18    22    2
    30    19    20   ar
    31     6     7    1
    32     6    11    1
    33     7     8    1
    34     7     9    1
    35     8    13    1
    36     9    10    1
    37     9    12    1
    38    10    11    1
    39    10     5    1
    40    12    14    1
    41     5     4    1
    42     4     1    1
    43     1     2    2
    44     1     3    1
    45     1    24    1
    46    24    25    1
    47    25    26    2
    48    25    27    1
@<TRIPOS>MOLECULE
UD1
 46 48 0 0 0
SMALL
GASTEIGER

@<TRIPOS>ATOM
      1 P          20.3984   72.0817   -1.4627 P.3     1  UNL1        0.2189
      2 O          20.9615   73.2962   -2.0924 O.2     1  UNL1       -0.5170
      3 O          21.1688   70.7820   -2.0194 O.3     1  UNL1       -0.4371
      4 O          18.8322   71.9697   -1.8195 O.3     1  UNL1       -0.3112
      5 C          18.6305   70.6790   -2.3971 C.3     1  UNL1        0.1811
      6 C          17.0088   70.5202   -5.6021 C.3     1  UNL1        0.2383
      7 C          16.9398   69.0706   -5.0599 C.3     1  UNL1        0.1895
      8 O          15.7721   68.4014   -5.5372 O.3     1  UNL1       -0.3779
      9 C          16.8593   69.2993   -3.5281 C.3     1  UNL1        0.1713
     10 C          17.4207   70.7208   -3.3319 C.3     1  UNL1        0.1764
     11 O          17.8185   71.2080   -4.6248 O.3     1  UNL1       -0.3308
     12 O          15.5037   69.2237   -3.0815 O.3     1  UNL1       -0.3794
     13 H          15.7893   67.5085   -5.1657 H       1  UNL1        0.2106
     14 H          15.1918   68.3320   -3.2856 H       1  UNL1        0.2105
     15 N          17.6489   70.5528   -6.9177 N.ar    1  UNL1       -0.2551
     16 C          16.8943   70.4779   -8.0278 C.ar    1  UNL1        0.3323
     17 N          17.4557   70.5095   -9.2509 N.ar    1  UNL1       -0.2743
     18 C          18.7940   70.6082   -9.3820 C.ar    1  UNL1        0.2626
     19 C          19.6007   70.6818   -8.2215 C.ar    1  UNL1        0.0795
     20 C          19.0111   70.6534   -7.0071 C.ar    1  UNL1        0.0869
     21 O          15.6859   70.3886   -7.9259 O.2     1  UNL1       -0.2464
     22 O          19.3030   70.6321  -10.4873 O.2     1  UNL1       -0.2670
     23 H          16.8957   70.4592  -10.0409 H       1  UNL1        0.1734
     24 O          20.5798   72.1715    0.1336 O.3     1  UNL1       -0.2703
     25 P          22.0047   71.5076    0.4776 P.3     1  UNL1        0.2208
     26 O          22.8478   71.4920   -0.7380 O.2     1  UNL1       -0.5170
     27 O          21.7837   69.9994    0.9960 O.3     1  UNL1       -0.4371
     28 O          22.7351   72.3667    1.6261 O.3     1  UNL1       -0.2865
     29 C          22.2370   73.7019    1.5250 C.3     1  UNL1        0.2611
     30 C          23.4007   74.6554    1.2485 C.3     1  UNL1        0.1582
     31 C          24.4217   74.5434    2.3864 C.3     1  UNL1        0.1625
     32 C          23.6977   74.7672    3.7182 C.3     1  UNL1        0.1686
     33 C          22.5132   73.8029    3.8097 C.3     1  UNL1        0.1760
     34 O          25.4375   75.5339    2.2175 O.3     1  UNL1       -0.3801
     35 O          24.5994   74.5227    4.7993 O.3     1  UNL1       -0.3794
     36 O          21.5968   74.0627    2.7470 O.3     1  UNL1       -0.3263
     37 H          26.0567   75.4272    2.9527 H       1  UNL1        0.2105
     38 H          24.1037   74.6739    5.6166 H       1  UNL1        0.2105
     39 C          23.9254   75.1102   -1.0865 C.2     1  UNL1        0.2231
     40 C          24.5814   74.7391   -2.3919 C.3     1  UNL1        0.0946
     41 N          24.0382   74.2956   -0.0197 N.am    1  UNL1       -0.2994
     42 O          23.2952   76.1422   -0.9964 O.2     1  UNL1       -0.2751
     43 H          24.5423   73.4696   -0.0916 H       1  UNL1        0.1496
     44 C          21.8024   73.9959    5.1509 C.3     1  UNL1        0.1693
     45 O          22.2102   72.9703    6.0585 O.3     1  UNL1       -0.3794
     46 H          21.7404   73.1281    6.8886 H       1  UNL1        0.2105
@<TRIPOS>BOND
     1    29    30    1
     2    29    28    1
     3    29    36    1
     4    30    31    1
     5    30    41    1
     6    31    32    1
     7    31    34    1
     8    32    33    1
     9    32    35    1
    10    33    44    1
    11    33    36    1
    12    44    45    1
    13    39    40    1
    14    39    41   am
    15    39    42    2
    16    41    43    1
    17    28    25    1
    18    34    37    1
    19    35    38    1
    20    45    46    1
    21    15    16   ar
    22    15    20   ar
    23    15     6    1
    24    16    17   ar
    25    16    21    2
    26    17    18   ar
    27    17    23    1
    28    18    19   ar
    29    18    22    2
    30    19    20   ar
    31     6     7    1
    32     6    11    1
    33     7     8    1
    34     7     9    1
    35     8    13    1
    36     9    10    1
    37     9    12    1
    38    10    11    1
    39    10     5    1
    40    12    14    1
    41     5     4    1
    42     4     1    1
    43     1     2    2
    44     1     3    1
    45     1    24    1
    46    24    25    1
    47    25    26    2
    48    25    27    1
@<TRIPOS>MOLECULE
UD1
 46 48 0 0 0
SMALL
GASTEIGER

@<TRIPOS>ATOM
      1 P          21.4689   71.1495   -0.1506 P.3     1  UNL1        0.2189
      2 O          20.7910   72.4137    0.2115 O.2     1  UNL1       -0.5170
      3 O          21.4379   70.1445    1.1070 O.3     1  UNL1       -0.4371
      4 O          22.9974   71.4571   -0.5529 O.3     1  UNL1       -0.3112
      5 C          23.8099   71.0033    0.5307 C.3     1  UNL1        0.1811
      6 C          25.5367   73.1065    2.8807 C.3     1  UNL1        0.2383
      7 C          25.4858   73.9416    1.5767 C.3     1  UNL1        0.1895
      8 O          25.4338   75.3390    1.8664 O.3     1  UNL1       -0.3779
      9 C          24.1595   73.4601    0.9333 C.3     1  UNL1        0.1713
     10 C          23.8945   72.0955    1.5981 C.3     1  UNL1        0.1764
     11 O          24.9947   71.8286    2.4845 O.3     1  UNL1       -0.3308
     12 O          23.1019   74.3776    1.2207 O.3     1  UNL1       -0.3794
     13 H          25.4045   75.8003    1.0169 H       1  UNL1        0.2106
     14 H          23.3540   75.2253    0.8307 H       1  UNL1        0.2105
     15 N          26.9150   72.9594    3.3498 N.ar    1  UNL1       -0.2551
     16 C          27.6138   71.8564    3.0296 C.ar    1  UNL1        0.3323
     17 N          28.8845   71.6963    3.4440 N.ar    1  UNL1       -0.2743
     18 C          29.4771   72.6426    4.1999 C.ar    1  UNL1        0.2626
     19 C          28.7510   73.8060    4.5493 C.ar    1  UNL1        0.0795
     20 C          27.4796   73.9435    4.1157 C.ar    1  UNL1        0.0869
     21 O          27.0931   70.9941    2.3485 O.2     1  UNL1       -0.2464
     22 O          30.6244   72.4966    4.5791 O.2     1  UNL1       -0.2670
     23 H          29.3752   70.8965    3.1997 H       1  UNL1        0.1734
     24 O          20.7115   70.4728   -1.3985 O.3     1  UNL1       -0.2703
     25 P          19.9213   71.6513   -2.1574 P.3     1  UNL1        0.2208
     26 O          20.8531   72.7636   -2.4460 O.2     1  UNL1       -0.5170
     27 O          18.7238   72.1842   -1.2224 O.3     1  UNL1       -0.4371
     28 O          19.3131   71.0892   -3.5375 O.3     1  UNL1       -0.2865
     29 C          18.5298   72.1411   -4.1041 C.3     1  UNL1        0.2611
     30 C          17.1537   71.5950   -4.4891 C.3     1  UNL1        0.1582
     31 C          17.3315   70.4512   -5.4939 C.3     1  UNL1        0.1625
     32 C          18.1838   70.9545   -6.6637 C.3     1  UNL1        0.1686
     33 C          19.4837   71.5463   -6.1148 C.3     1  UNL1        0.1760
     34 O          16.0526   70.0326   -5.9742 O.3     1  UNL1       -0.3801
     35 O          18.4847   69.8659   -7.5389 O.3     1  UNL1       -0.3794
     36 O          19.1879   72.6513   -5.2616 O.3     1  UNL1       -0.3263
     37 H          16.2113   69.3137   -6.6014 H       1  UNL1        0.2105
     38 H          19.0218   70.2261   -8.2589 H       1  UNL1        0.2105
     39 C          16.5176   69.7841   -2.9889 C.2     1  UNL1        0.2231
     40 C          15.8160   69.2704   -1.7576 C.3     1  UNL1        0.0946
     41 N          16.4727   71.0955   -3.2928 N.am    1  UNL1       -0.2994
     42 O          17.1223   69.0165   -3.7068 O.2     1  UNL1       -0.2751
     43 H          15.9886   71.7100   -2.7185 H       1  UNL1        0.1496
     44 C          20.3567   72.0226   -7.2776 C.3     1  UNL1        0.1693
     45 O          21.2177   70.9606   -7.6936 O.3     1  UNL1       -0.3794
     46 H          21.7493   71.3017   -8.4255 H       1  UNL1        0.2105
@<TRIPOS>BOND
     1    29    30    1
     2    29    28    1
     3    29    36    1
     4    30    31    1
     5    30    41    1
     6    31    32    1
     7    31    34    1
     8    32    33    1
     9    32    35    1
    10    33    44    1
    11    33    36    1
    12    44    45    1
    13    39    40    1
    14    39    41   am
    15    39    42    2
    16    41    43    1
    17    28    25    1
    18    34    37    1
    19    35    38    1
    20    45    46    1
    21    15    16   ar
    22    15    20   ar
    23    15     6    1
    24    16    17   ar
    25    16    21    2
    26    17    18   ar
    27    17    23    1
    28    18    19   ar
    29    18    22    2
    30    19    20   ar
    31     6     7    1
    32     6    11    1
    33     7     8    1
    34     7     9    1
    35     8    13    1
    36     9    10    1
    37     9    12    1
    38    10    11    1
    39    10     5    1
    40    12    14    1
    41     5     4    1
    42     4     1    1
    43     1     2    2
    44     1     3    1
    45     1    24    1
    46    24    25    1
    47    25    26    2
    48    25    27    1
@<TRIPOS>MOLECULE
UD1
 46 48 0 0 0
SMALL
GASTEIGER

@<TRIPOS>ATOM
      1 P          19.9929   71.7391   -1.7769 P.3     1  UNL1        0.2189
      2 O          19.3735   70.4531   -1.3881 O.2     1  UNL1       -0.5170
      3 O          19.0139   72.5229   -2.7868 O.3     1  UNL1       -0.4371
      4 O          21.4006   71.4573   -2.5062 O.3     1  UNL1       -0.3112
      5 C          21.5098   72.4002   -3.5735 C.3     1  UNL1        0.1811
      6 C          20.3958   71.0703   -6.7227 C.3     1  UNL1        0.2383
      7 C          20.9528   72.4737   -7.0693 C.3     1  UNL1        0.1895
      8 O          21.4927   72.4972   -8.3911 O.3     1  UNL1       -0.3779
      9 C          22.0726   72.6502   -6.0109 C.3     1  UNL1        0.1713
     10 C          21.6945   71.6554   -4.8965 C.3     1  UNL1        0.1764
     11 O          20.4590   71.0285   -5.2812 O.3     1  UNL1       -0.3308
     12 O          23.3463   72.3236   -6.5710 O.3     1  UNL1       -0.3794
     13 H          21.8205   73.3943   -8.5439 H       1  UNL1        0.2106
     14 H          23.4980   72.9412   -7.2987 H       1  UNL1        0.2105
     15 N          19.0136   70.9318   -7.1829 N.ar    1  UNL1       -0.2551
     16 C          18.7641   70.4012   -8.3927 C.ar    1  UNL1        0.3323
     17 N          17.5025   70.2582   -8.8401 N.ar    1  UNL1       -0.2743
     18 C          16.4627   70.6565   -8.0797 C.ar    1  UNL1        0.2626
     19 C          16.7113   71.2223   -6.8066 C.ar    1  UNL1        0.0795
     20 C          17.9863   71.3491   -6.3802 C.ar    1  UNL1        0.0869
     21 O          19.6914   70.0372   -9.0900 O.2     1  UNL1       -0.2464
     22 O          15.3219   70.5321   -8.4852 O.2     1  UNL1       -0.2670
     23 H          17.3408   69.8690   -9.7133 H       1  UNL1        0.1734
     24 O          20.2393   72.6350   -0.4633 O.3     1  UNL1       -0.2703
     25 P          21.3574   71.8785    0.4124 P.3     1  UNL1        0.2208
     26 O          22.6985   72.1757   -0.1371 O.2     1  UNL1       -0.5170
     27 O          21.0969   70.2905    0.3606 O.3     1  UNL1       -0.4371
     28 O          21.2786   72.3842    1.9384 O.3     1  UNL1       -0.2865
     29 C          21.4789   73.7986    1.9171 C.3     1  UNL1        0.2611
     30 C          22.6499   74.1567    2.8339 C.3     1  UNL1        0.1582
     31 C          22.3388   73.6756    4.2556 C.3     1  UNL1        0.1625
     32 C          20.9809   74.2452    4.6796 C.3     1  UNL1        0.1686
     33 C          19.9350   73.8777    3.6249 C.3     1  UNL1        0.1760
     34 O          23.3545   74.1345    5.1495 O.3     1  UNL1       -0.3801
     35 O          20.6037   73.6919    5.9419 O.3     1  UNL1       -0.3794
     36 O          20.2946   74.4518    2.3689 O.3     1  UNL1       -0.3263
     37 H          23.1197   73.8098    6.0297 H       1  UNL1        0.2105
     38 H          19.7451   74.0757    6.1701 H       1  UNL1        0.2105
     39 C          24.1928   72.2721    2.7893 C.2     1  UNL1        0.2231
     40 C          25.4472   71.6003    2.2918 C.3     1  UNL1        0.0946
     41 N          23.8681   73.5035    2.3505 N.am    1  UNL1       -0.2994
     42 O          23.4759   71.7043    3.5854 O.2     1  UNL1       -0.2751
     43 H          24.4418   73.9582    1.7136 H       1  UNL1        0.1496
     44 C          18.5682   74.4143    4.0552 C.3     1  UNL1        0.1693
     45 O          17.9534   75.0892    2.9559 O.3     1  UNL1       -0.3794
     46 H          17.0972   75.4112    3.2687 H       1  UNL1        0.2105
@<TRIPOS>BOND
     1    29    30    1
     2    29    28    1
     3    29    36    1
     4    30    31    1
     5    30    41    1
     6    31    32    1
     7    31    34    1
     8    32    33    1
     9    32    35    1
    10    33    44    1
    11    33    36    1
    12    44    45    1
    13    39    40    1
    14    39    41   am
    15    39    42    2
    16    41    43    1
    17    28    25    1
    18    34    37    1
    19    35    38    1
    20    45    46    1
    21    15    16   ar
    22    15    20   ar
    23    15     6    1
    24    16    17   ar
    25    16    21    2
    26    17    18   ar
    27    17    23    1
    28    18    19   ar
    29    18    22    2
    30    19    20   ar
    31     6     7    1
    32     6    11    1
    33     7     8    1
    34     7     9    1
    35     8    13    1
    36     9    10    1
    37     9    12    1
    38    10    11    1
    39    10     5    1
    40    12    14    1
    41     5     4    1
    42     4     1    1
    43     1     2    2
    44     1     3    1
    45     1    24    1
    46    24    25    1
    47    25    26    2
    48    25    27    1
@<TRIPOS>MOLECULE
UD1
 46 48 0 0 0
SMALL
GASTEIGER

@<TRIPOS>ATOM
      1 P          20.5200   71.0222   -1.7652 P.3     1  UNL1        0.2189
      2 O          20.6808   70.5941   -0.3582 O.2     1  UNL1       -0.5170
      3 O          20.5365   72.6304   -1.8421 O.3     1  UNL1       -0.4371
      4 O          19.1180   70.4730   -2.3358 O.3     1  UNL1       -0.3112
      5 C          18.2509   71.6014   -2.4594 C.3     1  UNL1        0.1811
      6 C          16.8389   70.6880   -5.6373 C.3     1  UNL1        0.2383
      7 C          17.0571   69.3390   -4.9074 C.3     1  UNL1        0.1895
      8 O          16.0802   68.3774   -5.3077 O.3     1  UNL1       -0.3779
      9 C          16.8642   69.7381   -3.4212 C.3     1  UNL1        0.1713
     10 C          17.1011   71.2606   -3.4086 C.3     1  UNL1        0.1764
     11 O          17.4410   71.6536   -4.7493 O.3     1  UNL1       -0.3308
     12 O          15.5380   69.4280   -2.9879 O.3     1  UNL1       -0.3794
     13 H          16.2712   67.5643   -4.8200 H       1  UNL1        0.2106
     14 H          15.4322   68.4713   -3.0754 H       1  UNL1        0.2105
     15 N          17.5131   70.6907   -6.9362 N.ar    1  UNL1       -0.2551
     16 C          16.8024   70.4721   -8.0562 C.ar    1  UNL1        0.3323
     17 N          17.3955   70.4728   -9.2647 N.ar    1  UNL1       -0.2743
     18 C          18.7228   70.6852   -9.3701 C.ar    1  UNL1        0.2626
     19 C          19.4840   70.9108   -8.1985 C.ar    1  UNL1        0.0795
     20 C          18.8628   70.9100   -6.9996 C.ar    1  UNL1        0.0869
     21 O          15.6044   70.2790   -7.9775 O.2     1  UNL1       -0.2464
     22 O          19.2609   70.6813  -10.4618 O.2     1  UNL1       -0.2670
     23 H          16.8666   70.3181  -10.0625 H       1  UNL1        0.1734
     24 O          21.7276   70.4294   -2.6479 O.3     1  UNL1       -0.2703
     25 P          22.9746   71.4290   -2.4606 P.3     1  UNL1        0.2208
     26 O          24.1907   70.8135   -3.0361 O.2     1  UNL1       -0.5170
     27 O          23.2071   71.7101   -0.8924 O.3     1  UNL1       -0.4371
     28 O          22.6685   72.8181   -3.2136 O.3     1  UNL1       -0.2865
     29 C          23.8226   73.1283   -3.9965 C.3     1  UNL1        0.2611
     30 C          24.2150   74.5880   -3.7612 C.3     1  UNL1        0.1582
     31 C          23.0392   75.4918   -4.1489 C.3     1  UNL1        0.1625
     32 C          22.6130   75.1540   -5.5815 C.3     1  UNL1        0.1686
     33 C          22.3385   73.6518   -5.6786 C.3     1  UNL1        0.1760
     34 O          23.4430   76.8604   -4.0761 O.3     1  UNL1       -0.3801
     35 O          21.4274   75.8802   -5.9112 O.3     1  UNL1       -0.3794
     36 O          23.5281   72.9238   -5.3766 O.3     1  UNL1       -0.3263
     37 H          22.6750   77.3920   -4.3270 H       1  UNL1        0.2105
     38 H          21.1942   75.6379   -6.8187 H       1  UNL1        0.2105
     39 C          23.5940   75.2164   -1.4910 C.2     1  UNL1        0.2231
     40 C          23.9297   75.4206   -0.0357 C.3     1  UNL1        0.0946
     41 N          24.5405   74.7860   -2.3473 N.am    1  UNL1       -0.2994
     42 O          22.4716   75.4402   -1.8915 O.2     1  UNL1       -0.2751
     43 H          25.4388   74.6071   -2.0271 H       1  UNL1        0.1496
     44 C          21.8805   73.3090   -7.0978 C.3     1  UNL1        0.1693
     45 O          23.0188   73.2170   -7.9569 O.3     1  UNL1       -0.3794
     46 H          22.6870   73.0005   -8.8387 H       1  UNL1        0.2105
@<TRIPOS>BOND
     1    29    30    1
     2    29    28    1
     3    29    36    1
     4    30    31    1
     5    30    41    1
     6    31    32    1
     7    31    34    1
     8    32    33    1
     9    32    35    1
    10    33    44    1
    11    33    36    1
    12    44    45    1
    13    39    40    1
    14    39    41   am
    15    39    42    2
    16    41    43    1
    17    28    25    1
    18    34    37    1
    19    35    38    1
    20    45    46    1
    21    15    16   ar
    22    15    20   ar
    23    15     6    1
    24    16    17   ar
    25    16    21    2
    26    17    18   ar
    27    17    23    1
    28    18    19   ar
    29    18    22    2
    30    19    20   ar
    31     6     7    1
    32     6    11    1
    33     7     8    1
    34     7     9    1
    35     8    13    1
    36     9    10    1
    37     9    12    1
    38    10    11    1
    39    10     5    1
    40    12    14    1
    41     5     4    1
    42     4     1    1
    43     1     2    2
    44     1     3    1
    45     1    24    1
    46    24    25    1
    47    25    26    2
    48    25    27    1
@<TRIPOS>MOLECULE
UD1
 46 48 0 0 0
SMALL
GASTEIGER

@<TRIPOS>ATOM
      1 P          21.3464   71.2966    0.0775 P.3     1  UNL1        0.2189
      2 O          20.5769   72.4092    0.6764 O.2     1  UNL1       -0.5170
      3 O          21.5739   70.1463    1.1809 O.3     1  UNL1       -0.4371
      4 O          22.7739   71.8435   -0.4283 O.3     1  UNL1       -0.3112
      5 C          23.7530   71.3565    0.4907 C.3     1  UNL1        0.1811
      6 C          25.6298   73.1521    2.9768 C.3     1  UNL1        0.2383
      7 C          25.6242   74.0890    1.7429 C.3     1  UNL1        0.1895
      8 O          25.6655   75.4596    2.1416 O.3     1  UNL1       -0.3779
      9 C          24.2648   73.7462    1.0799 C.3     1  UNL1        0.1713
     10 C          23.9162   72.3533    1.6392 C.3     1  UNL1        0.1764
     11 O          25.0029   71.9471    2.4885 O.3     1  UNL1       -0.3308
     12 O          23.2714   74.7044    1.4511 O.3     1  UNL1       -0.3794
     13 H          25.6602   75.9874    1.3312 H       1  UNL1        0.2106
     14 H          23.5753   75.5622    1.1256 H       1  UNL1        0.2105
     15 N          26.9989   72.8800    3.4161 N.ar    1  UNL1       -0.2551
     16 C          27.6274   71.7707    2.9898 C.ar    1  UNL1        0.3323
     17 N          28.8881   71.4971    3.3746 N.ar    1  UNL1       -0.2743
     18 C          29.5411   72.3330    4.2070 C.ar    1  UNL1        0.2626
     19 C          28.8891   73.5014    4.6681 C.ar    1  UNL1        0.0795
     20 C          27.6263   73.7543    4.2622 C.ar    1  UNL1        0.0869
     21 O          27.0518   71.0071    2.2388 O.2     1  UNL1       -0.2464
     22 O          30.6792   72.0842    4.5593 O.2     1  UNL1       -0.2670
     23 H          29.3279   70.6948    3.0536 H       1  UNL1        0.1734
     24 O          20.5312   70.6909   -1.1704 O.3     1  UNL1       -0.2703
     25 P          20.7745   71.6857   -2.4116 P.3     1  UNL1        0.2208
     26 O          21.9099   71.1937   -3.2226 O.2     1  UNL1       -0.5170
     27 O          21.1092   73.1609   -1.8604 O.3     1  UNL1       -0.4371
     28 O          19.4491   71.7429   -3.3230 O.3     1  UNL1       -0.2865
     29 C          19.5514   70.6784   -4.2705 C.3     1  UNL1        0.2611
     30 C          19.3696   71.2394   -5.6819 C.3     1  UNL1        0.1582
     31 C          17.9994   71.9198   -5.7782 C.3     1  UNL1        0.1625
     32 C          16.9250   70.9239   -5.3290 C.3     1  UNL1        0.1686
     33 C          17.2897   70.3889   -3.9426 C.3     1  UNL1        0.1760
     34 O          17.7553   72.3157   -7.1292 O.3     1  UNL1       -0.3801
     35 O          15.6579   71.5817   -5.2709 O.3     1  UNL1       -0.3794
     36 O          18.5420   69.7073   -4.0030 O.3     1  UNL1       -0.3263
     37 H          16.8855   72.7383   -7.1437 H       1  UNL1        0.2105
     38 H          15.0123   70.9204   -4.9839 H       1  UNL1        0.2105
     39 C          21.1949   72.0844   -7.0561 C.2     1  UNL1        0.2231
     40 C          22.2801   73.0910   -7.3416 C.3     1  UNL1        0.0946
     41 N          20.4235   72.2173   -5.9600 N.am    1  UNL1       -0.2994
     42 O          21.0166   71.1541   -7.8130 O.2     1  UNL1       -0.2751
     43 H          20.5662   72.9616   -5.3540 H       1  UNL1        0.1496
     44 C          16.2057   69.4176   -3.4708 C.3     1  UNL1        0.1693
     45 O          16.5265   68.9450   -2.1608 O.3     1  UNL1       -0.3794
     46 H          15.8205   68.3374   -1.9019 H       1  UNL1        0.2105
@<TRIPOS>BOND
     1    29    30    1
     2    29    28    1
     3    29    36    1
     4    30    31    1
     5    30    41    1
     6    31    32    1
     7    31    34    1
     8    32    33    1
     9    32    35    1
    10    33    44    1
    11    33    36    1
    12    44    45    1
    13    39    40    1
    14    39    41   am
    15    39    42    2
    16    41    43    1
    17    28    25    1
    18    34    37    1
    19    35    38    1
    20    45    46    1
    21    15    16   ar
    22    15    20   ar
    23    15     6    1
    24    16    17   ar
    25    16    21    2
    26    17    18   ar
    27    17    23    1
    28    18    19   ar
    29    18    22    2
    30    19    20   ar
    31     6     7    1
    32     6    11    1
    33     7     8    1
    34     7     9    1
    35     8    13    1
    36     9    10    1
    37     9    12    1
    38    10    11    1
    39    10     5    1
    40    12    14    1
    41     5     4    1
    42     4     1    1
    43     1     2    2
    44     1     3    1
    45     1    24    1
    46    24    25    1
    47    25    26    2
    48    25    27    1
@<TRIPOS>MOLECULE
UD1
 46 48 0 0 0
SMALL
GASTEIGER

@<TRIPOS>ATOM
      1 P          21.1509   71.4981   -2.6587 P.3     1  UNL1        0.2189
      2 O          22.1698   71.6313   -3.7230 O.2     1  UNL1       -0.5170
      3 O          21.8015   70.7641   -1.3817 O.3     1  UNL1       -0.4371
      4 O          19.9145   70.6240   -3.2066 O.3     1  UNL1       -0.3112
      5 C          18.7590   71.0382   -2.4763 C.3     1  UNL1        0.1811
      6 C          17.0900   70.6332   -5.6350 C.3     1  UNL1        0.2383
      7 C          17.0555   69.2231   -4.9942 C.3     1  UNL1        0.1895
      8 O          15.8926   68.5033   -5.4048 O.3     1  UNL1       -0.3779
      9 C          16.9951   69.5548   -3.4804 C.3     1  UNL1        0.1713
     10 C          17.5340   70.9957   -3.3911 C.3     1  UNL1        0.1764
     11 O          17.9025   71.3997   -4.7208 O.3     1  UNL1       -0.3308
     12 O          15.6483   69.4872   -3.0067 O.3     1  UNL1       -0.3794
     13 H          15.9316   67.6384   -4.9736 H       1  UNL1        0.2106
     14 H          15.3493   68.5785   -3.1442 H       1  UNL1        0.2105
     15 N          17.7085   70.5864   -6.9604 N.ar    1  UNL1       -0.2551
     16 C          16.9355   70.4512   -8.0520 C.ar    1  UNL1        0.3323
     17 N          17.4768   70.4092   -9.2838 N.ar    1  UNL1       -0.2743
     18 C          18.8132   70.4934   -9.4419 C.ar    1  UNL1        0.2626
     19 C          19.6392   70.6299   -8.3009 C.ar    1  UNL1        0.0795
     20 C          19.0695   70.6747   -7.0775 C.ar    1  UNL1        0.0869
     21 O          15.7285   70.3741   -7.9257 O.2     1  UNL1       -0.2464
     22 O          19.3041   70.4507  -10.5549 O.2     1  UNL1       -0.2670
     23 H          16.9038   70.3161  -10.0605 H       1  UNL1        0.1734
     24 O          20.6276   72.9582   -2.2308 O.3     1  UNL1       -0.2703
     25 P          21.7099   73.5566   -1.2013 P.3     1  UNL1        0.2208
     26 O          21.8428   75.0142   -1.4175 O.2     1  UNL1       -0.5170
     27 O          23.1340   72.8465   -1.4457 O.3     1  UNL1       -0.4371
     28 O          21.2261   73.2801    0.3087 O.3     1  UNL1       -0.2865
     29 C          21.7703   74.3255    1.1163 C.3     1  UNL1        0.2611
     30 C          22.4328   73.7156    2.3529 C.3     1  UNL1        0.1582
     31 C          21.3879   72.9140    3.1373 C.3     1  UNL1        0.1625
     32 C          20.1864   73.8215    3.4219 C.3     1  UNL1        0.1686
     33 C          19.6915   74.4211    2.1040 C.3     1  UNL1        0.1760
     34 O          21.9552   72.4645    4.3692 O.3     1  UNL1       -0.3801
     35 O          19.1406   73.0554    4.0227 O.3     1  UNL1       -0.3794
     36 O          20.7248   75.2095    1.5149 O.3     1  UNL1       -0.3263
     37 H          21.2656   71.9661    4.8289 H       1  UNL1        0.2105
     38 H          18.4054   73.6637    4.1839 H       1  UNL1        0.2105
     39 C          23.3000   71.5071    1.8010 C.2     1  UNL1        0.2231
     40 C          24.4213   70.5943    1.3745 C.3     1  UNL1        0.0946
     41 N          23.5216   72.8286    1.9381 N.am    1  UNL1       -0.2994
     42 O          22.1981   71.0517    2.0215 O.2     1  UNL1       -0.2751
     43 H          24.4034   73.1932    1.7620 H       1  UNL1        0.1496
     44 C          18.4710   75.3038    2.3733 C.3     1  UNL1        0.1693
     45 O          18.6959   76.6065    1.8307 O.3     1  UNL1       -0.3794
     46 H          17.9055   77.1295    2.0218 H       1  UNL1        0.2105
@<TRIPOS>BOND
     1    29    30    1
     2    29    28    1
     3    29    36    1
     4    30    31    1
     5    30    41    1
     6    31    32    1
     7    31    34    1
     8    32    33    1
     9    32    35    1
    10    33    44    1
    11    33    36    1
    12    44    45    1
    13    39    40    1
    14    39    41   am
    15    39    42    2
    16    41    43    1
    17    28    25    1
    18    34    37    1
    19    35    38    1
    20    45    46    1
    21    15    16   ar
    22    15    20   ar
    23    15     6    1
    24    16    17   ar
    25    16    21    2
    26    17    18   ar
    27    17    23    1
    28    18    19   ar
    29    18    22    2
    30    19    20   ar
    31     6     7    1
    32     6    11    1
    33     7     8    1
    34     7     9    1
    35     8    13    1
    36     9    10    1
    37     9    12    1
    38    10    11    1
    39    10     5    1
    40    12    14    1
    41     5     4    1
    42     4     1    1
    43     1     2    2
    44     1     3    1
    45     1    24    1
    46    24    25    1
    47    25    26    2
    48    25    27    1
@<TRIPOS>MOLECULE
UD1
 46 48 0 0 0
SMALL
GASTEIGER

@<TRIPOS>ATOM
      1 P          21.7761   72.7499   -6.5274 P.3     1  UNL1        0.2189
      2 O          21.0144   73.7684   -7.2832 O.2     1  UNL1       -0.5170
      3 O          23.3508   73.0685   -6.6343 O.3     1  UNL1       -0.4371
      4 O          21.4814   71.2924   -7.1453 O.3     1  UNL1       -0.3112
      5 C          20.6488   71.4885   -8.2893 C.3     1  UNL1        0.1811
      6 C          17.6296   70.0558   -6.9629 C.3     1  UNL1        0.2383
      7 C          17.1430   71.0633   -8.0345 C.3     1  UNL1        0.1895
      8 O          15.9200   70.6268   -8.6286 O.3     1  UNL1       -0.3779
      9 C          18.3020   71.0284   -9.0644 C.3     1  UNL1        0.1713
     10 C          19.4986   70.4806   -8.2629 C.3     1  UNL1        0.1764
     11 O          19.0544   70.2809   -6.9101 O.3     1  UNL1       -0.3308
     12 O          17.9793   70.1584  -10.1515 O.3     1  UNL1       -0.3794
     13 H          15.6724   71.2946   -9.2829 H       1  UNL1        0.2106
     14 H          17.1899   70.5215  -10.5749 H       1  UNL1        0.2105
     15 N          17.0139   70.3391   -5.6660 N.ar    1  UNL1       -0.2551
     16 C          16.4273   69.3457   -4.9757 C.ar    1  UNL1        0.3323
     17 N          15.8566   69.5766   -3.7785 N.ar    1  UNL1       -0.2743
     18 C          15.8565   70.8187   -3.2540 C.ar    1  UNL1        0.2626
     19 C          16.4653   71.8749   -3.9728 C.ar    1  UNL1        0.0795
     20 C          17.0351   71.6144   -5.1690 C.ar    1  UNL1        0.0869
     21 O          16.4192   68.2201   -5.4355 O.2     1  UNL1       -0.2464
     22 O          15.3366   71.0295   -2.1739 O.2     1  UNL1       -0.2670
     23 H          15.4421   68.8473   -3.2922 H       1  UNL1        0.1734
     24 O          21.3253   72.7790   -4.9831 O.3     1  UNL1       -0.2703
     25 P          22.5870   73.3152   -4.1406 P.3     1  UNL1        0.2208
     26 O          22.9372   74.6800   -4.5918 O.2     1  UNL1       -0.5170
     27 O          23.8433   72.3353   -4.3721 O.3     1  UNL1       -0.4371
     28 O          22.2142   73.3468   -2.5752 O.3     1  UNL1       -0.2865
     29 C          23.1995   72.5641   -1.8986 C.3     1  UNL1        0.2611
     30 C          22.5249   71.3549   -1.2484 C.3     1  UNL1        0.1582
     31 C          21.4556   71.8457   -0.2659 C.3     1  UNL1        0.1625
     32 C          22.1031   72.8340    0.7098 C.3     1  UNL1        0.1686
     33 C          22.8070   73.9335   -0.0883 C.3     1  UNL1        0.1760
     34 O          20.9226   70.7342    0.4564 O.3     1  UNL1       -0.3801
     35 O          21.0959   73.4148    1.5405 O.3     1  UNL1       -0.3794
     36 O          23.8321   73.3599   -0.8986 O.3     1  UNL1       -0.3263
     37 H          20.2555   71.0876    1.0608 H       1  UNL1        0.2105
     38 H          21.5458   74.0295    2.1374 H       1  UNL1        0.2105
     39 C          20.5870   70.6678   -2.5548 C.2     1  UNL1        0.2231
     40 C          19.9428   69.8164   -3.6190 C.3     1  UNL1        0.0946
     41 N          21.8988   70.5285   -2.2824 N.am    1  UNL1       -0.2994
     42 O          19.9242   71.4780   -1.9430 O.2     1  UNL1       -0.2751
     43 H          22.4294   69.8800   -2.7717 H       1  UNL1        0.1496
     44 C          23.4297   74.9439    0.8774 C.3     1  UNL1        0.1693
     45 O          22.4279   75.8636    1.3164 O.3     1  UNL1       -0.3794
     46 H          22.8608   76.4814    1.9210 H       1  UNL1        0.2105
@<TRIPOS>BOND
     1    29    30    1
     2    29    28    1
     3    29    36    1
     4    30    31    1
     5    30    41    1
     6    31    32    1
     7    31    34    1
     8    32    33    1
     9    32    35    1
    10    33    44    1
    11    33    36    1
    12    44    45    1
    13    39    40    1
    14    39    41   am
    15    39    42    2
    16    41    43    1
    17    28    25    1
    18    34    37    1
    19    35    38    1
    20    45    46    1
    21    15    16   ar
    22    15    20   ar
    23    15     6    1
    24    16    17   ar
    25    16    21    2
    26    17    18   ar
    27    17    23    1
    28    18    19   ar
    29    18    22    2
    30    19    20   ar
    31     6     7    1
    32     6    11    1
    33     7     8    1
    34     7     9    1
    35     8    13    1
    36     9    10    1
    37     9    12    1
    38    10    11    1
    39    10     5    1
    40    12    14    1
    41     5     4    1
    42     4     1    1
    43     1     2    2
    44     1     3    1
    45     1    24    1
    46    24    25    1
    47    25    26    2
    48    25    27    1
@<TRIPOS>MOLECULE
UD1
 46 48 0 0 0
SMALL
GASTEIGER

@<TRIPOS>ATOM
      1 P          22.5214   72.9779   -5.2547 P.3     1  UNL1        0.2189
      2 O          22.9535   72.3998   -6.5461 O.2     1  UNL1       -0.5170
      3 O          23.5174   74.1738   -4.8420 O.3     1  UNL1       -0.4371
      4 O          22.5546   71.8370   -4.1188 O.3     1  UNL1       -0.3112
      5 C          22.1756   72.4632   -2.8921 C.3     1  UNL1        0.1811
      6 C          23.2302   71.2963    0.3411 C.3     1  UNL1        0.2383
      7 C          21.8500   71.9521    0.5963 C.3     1  UNL1        0.1895
      8 O          21.1722   71.3121    1.6781 O.3     1  UNL1       -0.3779
      9 C          21.1152   71.6969   -0.7454 C.3     1  UNL1        0.1713
     10 C          22.2531   71.4450   -1.7535 C.3     1  UNL1        0.1764
     11 O          23.4954   71.5966   -1.0457 O.3     1  UNL1       -0.3308
     12 O          20.2673   70.5510   -0.6415 O.3     1  UNL1       -0.3794
     13 H          20.3246   71.7656    1.7851 H       1  UNL1        0.2106
     14 H          19.6154   70.7472    0.0445 H       1  UNL1        0.2105
     15 N          24.2540   71.8890    1.2024 N.ar    1  UNL1       -0.2551
     16 C          25.0424   71.0927    1.9452 C.ar    1  UNL1        0.3323
     17 N          25.9950   71.6101    2.7434 N.ar    1  UNL1       -0.2743
     18 C          26.1678   72.9452    2.8176 C.ar    1  UNL1        0.2626
     19 C          25.3408   73.7954    2.0456 C.ar    1  UNL1        0.0795
     20 C          24.3967   73.2496    1.2493 C.ar    1  UNL1        0.0869
     21 O          24.8987   69.8865    1.8890 O.2     1  UNL1       -0.2464
     22 O          27.0256   73.4143    3.5427 O.2     1  UNL1       -0.2670
     23 H          26.5578   71.0206    3.2687 H       1  UNL1        0.1734
     24 O          21.0243   73.5499   -5.3968 O.3     1  UNL1       -0.2703
     25 P          20.1957   72.4743   -6.2603 P.3     1  UNL1        0.2208
     26 O          20.2771   71.1493   -5.6071 O.2     1  UNL1       -0.5170
     27 O          20.8182   72.3804   -7.7421 O.3     1  UNL1       -0.4371
     28 O          18.6555   72.9320   -6.3549 O.3     1  UNL1       -0.2865
     29 C          17.8680   71.7400   -6.3533 C.3     1  UNL1        0.2611
     30 C          17.0353   71.6830   -7.6353 C.3     1  UNL1        0.1582
     31 C          16.1384   72.9240   -7.7059 C.3     1  UNL1        0.1625
     32 C          15.3305   73.0194   -6.4073 C.3     1  UNL1        0.1686
     33 C          16.2922   72.9785   -5.2179 C.3     1  UNL1        0.1760
     34 O          15.2501   72.8101   -8.8192 O.3     1  UNL1       -0.3801
     35 O          14.5976   74.2458   -6.3893 O.3     1  UNL1       -0.3794
     36 O          17.0061   71.7429   -5.2173 O.3     1  UNL1       -0.3263
     37 H          14.7063   73.6098   -8.8257 H       1  UNL1        0.2105
     38 H          14.1051   74.2652   -5.5565 H       1  UNL1        0.2105
     39 C          18.3745   70.4780   -9.2751 C.2     1  UNL1        0.2231
     40 C          19.2918   70.4495  -10.4709 C.3     1  UNL1        0.0946
     41 N          17.9261   71.6548   -8.7972 N.am    1  UNL1       -0.2994
     42 O          18.0403   69.4413   -8.7425 O.2     1  UNL1       -0.2751
     43 H          18.1936   72.4847   -9.2231 H       1  UNL1        0.1496
     44 C          15.4976   73.1059   -3.9166 C.3     1  UNL1        0.1693
     45 O          16.4011   73.1906   -2.8126 O.3     1  UNL1       -0.3794
     46 H          15.8611   73.2692   -2.0146 H       1  UNL1        0.2105
@<TRIPOS>BOND
     1    29    30    1
     2    29    28    1
     3    29    36    1
     4    30    31    1
     5    30    41    1
     6    31    32    1
     7    31    34    1
     8    32    33    1
     9    32    35    1
    10    33    44    1
    11    33    36    1
    12    44    45    1
    13    39    40    1
    14    39    41   am
    15    39    42    2
    16    41    43    1
    17    28    25    1
    18    34    37    1
    19    35    38    1
    20    45    46    1
    21    15    16   ar
    22    15    20   ar
    23    15     6    1
    24    16    17   ar
    25    16    21    2
    26    17    18   ar
    27    17    23    1
    28    18    19   ar
    29    18    22    2
    30    19    20   ar
    31     6     7    1
    32     6    11    1
    33     7     8    1
    34     7     9    1
    35     8    13    1
    36     9    10    1
    37     9    12    1
    38    10    11    1
    39    10     5    1
    40    12    14    1
    41     5     4    1
    42     4     1    1
    43     1     2    2
    44     1     3    1
    45     1    24    1
    46    24    25    1
    47    25    26    2
    48    25    27    1
@<TRIPOS>MOLECULE
UD1
 46 48 0 0 0
SMALL
GASTEIGER

@<TRIPOS>ATOM
      1 P          22.8255   71.3548   -2.5422 P.3     1  UNL1        0.2189
      2 O          24.0924   71.0464   -3.2413 O.2     1  UNL1       -0.5170
      3 O          22.5949   72.9483   -2.5273 O.3     1  UNL1       -0.4371
      4 O          22.9021   70.8105   -1.0287 O.3     1  UNL1       -0.3112
      5 C          21.5848   70.9109   -0.4856 C.3     1  UNL1        0.1811
      6 C          23.2871   71.9757    2.4970 C.3     1  UNL1        0.2383
      7 C          22.7001   73.2788    1.8989 C.3     1  UNL1        0.1895
      8 O          22.3834   74.2164    2.9283 O.3     1  UNL1       -0.3779
      9 C          21.4128   72.7662    1.2021 C.3     1  UNL1        0.1713
     10 C          21.6703   71.2603    1.0010 C.3     1  UNL1        0.1764
     11 O          22.9918   70.9808    1.4937 O.3     1  UNL1       -0.3308
     12 O          20.2731   72.9782    2.0380 O.3     1  UNL1       -0.3794
     13 H          22.0248   75.0014    2.4917 H       1  UNL1        0.2106
     14 H          20.2009   73.9322    2.1750 H       1  UNL1        0.2105
     15 N          24.7321   72.0988    2.6922 N.ar    1  UNL1       -0.2551
     16 C          25.5226   71.0265    2.5114 C.ar    1  UNL1        0.3323
     17 N          26.8554   71.1115    2.6802 N.ar    1  UNL1       -0.2743
     18 C          27.4210   72.2799    3.0449 C.ar    1  UNL1        0.2626
     19 C          26.5999   73.4152    3.2444 C.ar    1  UNL1        0.0795
     20 C          25.2665   73.3032    3.0631 C.ar    1  UNL1        0.0869
     21 O          25.0274   69.9657    2.1824 O.2     1  UNL1       -0.2464
     22 O          28.6254   72.3568    3.2025 O.2     1  UNL1       -0.2670
     23 H          27.4110   70.3291    2.5409 H       1  UNL1        0.1734
     24 O          21.6029   70.6418   -3.3075 O.3     1  UNL1       -0.2703
     25 P          21.0290   71.7110   -4.3642 P.3     1  UNL1        0.2208
     26 O          22.1472   72.2749   -5.1519 O.2     1  UNL1       -0.5170
     27 O          20.2780   72.8966   -3.5751 O.3     1  UNL1       -0.4371
     28 O          19.9886   70.9840   -5.3539 O.3     1  UNL1       -0.2865
     29 C          19.1301   72.0013   -5.8728 C.3     1  UNL1        0.2611
     30 C          17.6725   71.5786   -5.6804 C.3     1  UNL1        0.1582
     31 C          17.4363   70.2492   -6.4060 C.3     1  UNL1        0.1625
     32 C          17.8846   70.3999   -7.8636 C.3     1  UNL1        0.1686
     33 C          19.3274   70.9087   -7.8911 C.3     1  UNL1        0.1760
     34 O          16.0469   69.9192   -6.3606 O.3     1  UNL1       -0.3801
     35 O          17.8105   69.1328   -8.5198 O.3     1  UNL1       -0.3794
     36 O          19.4000   72.1868   -7.2606 O.3     1  UNL1       -0.3263
     37 H          15.9440   69.0783   -6.8271 H       1  UNL1        0.2105
     38 H          18.1014   69.2729   -9.4321 H       1  UNL1        0.2105
     39 C          17.5024   70.1998   -3.6794 C.2     1  UNL1        0.2231
     40 C          17.2156   70.0309   -2.2092 C.3     1  UNL1        0.0946
     41 N          17.3945   71.4141   -4.2522 N.am    1  UNL1       -0.2994
     42 O          17.8297   69.2421   -4.3472 O.2     1  UNL1       -0.2751
     43 H          17.1324   72.1806   -3.7180 H       1  UNL1        0.1496
     44 C          19.7958   71.0317   -9.3425 C.3     1  UNL1        0.1693
     45 O          18.6632   71.2103  -10.1955 O.3     1  UNL1       -0.3794
     46 H          19.0015   71.2829  -11.0982 H       1  UNL1        0.2105
@<TRIPOS>BOND
     1    29    30    1
     2    29    28    1
     3    29    36    1
     4    30    31    1
     5    30    41    1
     6    31    32    1
     7    31    34    1
     8    32    33    1
     9    32    35    1
    10    33    44    1
    11    33    36    1
    12    44    45    1
    13    39    40    1
    14    39    41   am
    15    39    42    2
    16    41    43    1
    17    28    25    1
    18    34    37    1
    19    35    38    1
    20    45    46    1
    21    15    16   ar
    22    15    20   ar
    23    15     6    1
    24    16    17   ar
    25    16    21    2
    26    17    18   ar
    27    17    23    1
    28    18    19   ar
    29    18    22    2
    30    19    20   ar
    31     6     7    1
    32     6    11    1
    33     7     8    1
    34     7     9    1
    35     8    13    1
    36     9    10    1
    37     9    12    1
    38    10    11    1
    39    10     5    1
    40    12    14    1
    41     5     4    1
    42     4     1    1
    43     1     2    2
    44     1     3    1
    45     1    24    1
    46    24    25    1
    47    25    26    2
    48    25    27    1
@<TRIPOS>MOLECULE
UD1
 46 48 0 0 0
SMALL
GASTEIGER

@<TRIPOS>ATOM
      1 P          21.6997   71.7321   -0.4673 P.3     1  UNL1        0.2189
      2 O          20.9615   70.6227    0.1754 O.2     1  UNL1       -0.5170
      3 O          23.0612   71.1667   -1.1150 O.3     1  UNL1       -0.4371
      4 O          22.0552   72.8497    0.6361 O.3     1  UNL1       -0.3112
      5 C          23.0380   72.2791    1.5014 C.3     1  UNL1        0.1811
      6 C          22.7177   73.1465    4.9758 C.3     1  UNL1        0.2383
      7 C          21.6212   73.9790    4.2652 C.3     1  UNL1        0.1895
      8 O          20.5008   74.1889    5.1254 O.3     1  UNL1       -0.3779
      9 C          21.2394   73.0641    3.0726 C.3     1  UNL1        0.1713
     10 C          22.4575   72.1346    2.9089 C.3     1  UNL1        0.1764
     11 O          23.4358   72.5326    3.8846 O.3     1  UNL1       -0.3308
     12 O          20.0639   72.3101    3.3766 O.3     1  UNL1       -0.3794
     13 H          19.8579   74.7110    4.6258 H       1  UNL1        0.2106
     14 H          19.3537   72.9484    3.5263 H       1  UNL1        0.2105
     15 N          23.6039   74.0122    5.7547 N.ar    1  UNL1       -0.2551
     16 C          23.2760   74.3385    7.0170 C.ar    1  UNL1        0.3323
     17 N          24.0741   75.1297    7.7581 N.ar    1  UNL1       -0.2743
     18 C          25.2185   75.6179    7.2386 C.ar    1  UNL1        0.2626
     19 C          25.5729   75.2872    5.9089 C.ar    1  UNL1        0.0795
     20 C          24.7567   74.4873    5.1898 C.ar    1  UNL1        0.0869
     21 O          22.2471   73.9060    7.4996 O.2     1  UNL1       -0.2464
     22 O          25.9386   76.3372    7.9061 O.2     1  UNL1       -0.2670
     23 H          23.8243   75.3510    8.6685 H       1  UNL1        0.1734
     24 O          20.7877   72.3870   -1.6197 O.3     1  UNL1       -0.2703
     25 P          20.2376   71.1741   -2.5228 P.3     1  UNL1        0.2208
     26 O          19.3834   70.2924   -1.6971 O.2     1  UNL1       -0.5170
     27 O          21.4797   70.3285   -3.1011 O.3     1  UNL1       -0.4371
     28 O          19.3750   71.7633   -3.7472 O.3     1  UNL1       -0.2865
     29 C          19.7558   71.0305   -4.9130 C.3     1  UNL1        0.2611
     30 C          19.5572   71.9093   -6.1493 C.3     1  UNL1        0.1582
     31 C          18.0863   72.3323   -6.2325 C.3     1  UNL1        0.1625
     32 C          17.2111   71.0756   -6.1785 C.3     1  UNL1        0.1686
     33 C          17.5846   70.2611   -4.9382 C.3     1  UNL1        0.1760
     34 O          17.8566   73.0273   -7.4595 O.3     1  UNL1       -0.3801
     35 O          15.8352   71.4541   -6.1069 O.3     1  UNL1       -0.3794
     36 O          18.9512   69.8581   -5.0196 O.3     1  UNL1       -0.3263
     37 H          16.9217   73.2745   -7.4699 H       1  UNL1        0.2105
     38 H          15.3210   70.6349   -6.0738 H       1  UNL1        0.2105
     39 C          21.4017   73.2959   -6.9298 C.2     1  UNL1        0.2231
     40 C          22.2742   74.5205   -6.8226 C.3     1  UNL1        0.0946
     41 N          20.4047   73.0990   -6.0459 N.am    1  UNL1       -0.2994
     42 O          21.5977   72.4872   -7.8117 O.2     1  UNL1       -0.2751
     43 H          20.2478   73.7459   -5.3399 H       1  UNL1        0.1496
     44 C          16.6936   69.0199   -4.8573 C.3     1  UNL1        0.1693
     45 O          15.6666   69.2327   -3.8867 O.3     1  UNL1       -0.3794
     46 H          15.1294   68.4291   -3.8670 H       1  UNL1        0.2105
@<TRIPOS>BOND
     1    29    30    1
     2    29    28    1
     3    29    36    1
     4    30    31    1
     5    30    41    1
     6    31    32    1
     7    31    34    1
     8    32    33    1
     9    32    35    1
    10    33    44    1
    11    33    36    1
    12    44    45    1
    13    39    40    1
    14    39    41   am
    15    39    42    2
    16    41    43    1
    17    28    25    1
    18    34    37    1
    19    35    38    1
    20    45    46    1
    21    15    16   ar
    22    15    20   ar
    23    15     6    1
    24    16    17   ar
    25    16    21    2
    26    17    18   ar
    27    17    23    1
    28    18    19   ar
    29    18    22    2
    30    19    20   ar
    31     6     7    1
    32     6    11    1
    33     7     8    1
    34     7     9    1
    35     8    13    1
    36     9    10    1
    37     9    12    1
    38    10    11    1
    39    10     5    1
    40    12    14    1
    41     5     4    1
    42     4     1    1
    43     1     2    2
    44     1     3    1
    45     1    24    1
    46    24    25    1
    47    25    26    2
    48    25    27    1
@<TRIPOS>MOLECULE
UD1
 46 48 0 0 0
SMALL
GASTEIGER

@<TRIPOS>ATOM
      1 P          23.2689   71.7804   -3.1327 P.3     1  UNL1        0.2189
      2 O          24.2314   70.6642   -3.0043 O.2     1  UNL1       -0.5170
      3 O          23.6594   72.6817   -4.4085 O.3     1  UNL1       -0.4371
      4 O          23.3176   72.6860   -1.8021 O.3     1  UNL1       -0.3112
      5 C          23.6997   71.8243   -0.7289 C.3     1  UNL1        0.1811
      6 C          24.9965   73.1946    2.3319 C.3     1  UNL1        0.2383
      7 C          25.0987   74.3566    1.3124 C.3     1  UNL1        0.1895
      8 O          24.9534   75.6203    1.9615 O.3     1  UNL1       -0.3779
      9 C          23.8956   74.0743    0.3753 C.3     1  UNL1        0.1713
     10 C          23.5914   72.5800    0.5964 C.3     1  UNL1        0.1764
     11 O          24.5646   72.0766    1.5273 O.3     1  UNL1       -0.3308
     12 O          22.7742   74.8799    0.7443 O.3     1  UNL1       -0.3794
     13 H          25.0269   76.2978    1.2752 H       1  UNL1        0.2106
     14 H          23.0465   75.8015    0.6415 H       1  UNL1        0.2105
     15 N          26.2994   72.9205    2.9393 N.ar    1  UNL1       -0.2551
     16 C          26.7433   73.6974    3.9427 C.ar    1  UNL1        0.3323
     17 N          27.9360   73.4662    4.5227 N.ar    1  UNL1       -0.2743
     18 C          28.7131   72.4500    4.0968 C.ar    1  UNL1        0.2626
     19 C          28.2605   71.6280    3.0374 C.ar    1  UNL1        0.0795
     20 C          27.0579   71.8790    2.4771 C.ar    1  UNL1        0.0869
     21 O          26.0539   74.6177    4.3380 O.2     1  UNL1       -0.2464
     22 O          29.7936   72.2430    4.6173 O.2     1  UNL1       -0.2670
     23 H          28.2384   74.0337    5.2484 H       1  UNL1        0.1734
     24 O          21.7848   71.1898   -3.3257 O.3     1  UNL1       -0.2703
     25 P          20.7611   72.3707   -2.9426 P.3     1  UNL1        0.2208
     26 O          21.3501   73.6750   -3.3178 O.2     1  UNL1       -0.5170
     27 O          20.4805   72.3455   -1.3574 O.3     1  UNL1       -0.4371
     28 O          19.3759   72.1598   -3.7347 O.3     1  UNL1       -0.2865
     29 C          19.6295   71.2042   -4.7660 C.3     1  UNL1        0.2611
     30 C          19.4066   71.8612   -6.1293 C.3     1  UNL1        0.1582
     31 C          17.9641   72.3735   -6.2090 C.3     1  UNL1        0.1625
     32 C          17.0144   71.2169   -5.8796 C.3     1  UNL1        0.1686
     33 C          17.4159   70.6104   -4.5334 C.3     1  UNL1        0.1760
     34 O          17.6990   72.8543   -7.5281 O.3     1  UNL1       -0.3801
     35 O          15.6739   71.7059   -5.8043 O.3     1  UNL1       -0.3794
     36 O          18.7447   70.0963   -4.6134 O.3     1  UNL1       -0.3263
     37 H          16.7836   73.1662   -7.5330 H       1  UNL1        0.2105
     38 H          15.1108   70.9473   -5.5947 H       1  UNL1        0.2105
     39 C          21.2916   72.9351   -7.2374 C.2     1  UNL1        0.2231
     40 C          22.2473   74.0891   -7.4025 C.3     1  UNL1        0.0946
     41 N          20.3349   72.9822   -6.2904 N.am    1  UNL1       -0.2994
     42 O          21.3843   71.9634   -7.9568 O.2     1  UNL1       -0.2751
     43 H          20.2607   73.7596   -5.7144 H       1  UNL1        0.1496
     44 C          16.4532   69.4750   -4.1796 C.3     1  UNL1        0.1693
     45 O          16.0357   68.8138   -5.3757 O.3     1  UNL1       -0.3794
     46 H          15.4318   68.1076   -5.1088 H       1  UNL1        0.2105
@<TRIPOS>BOND
     1    29    30    1
     2    29    28    1
     3    29    36    1
     4    30    31    1
     5    30    41    1
     6    31    32    1
     7    31    34    1
     8    32    33    1
     9    32    35    1
    10    33    44    1
    11    33    36    1
    12    44    45    1
    13    39    40    1
    14    39    41   am
    15    39    42    2
    16    41    43    1
    17    28    25    1
    18    34    37    1
    19    35    38    1
    20    45    46    1
    21    15    16   ar
    22    15    20   ar
    23    15     6    1
    24    16    17   ar
    25    16    21    2
    26    17    18   ar
    27    17    23    1
    28    18    19   ar
    29    18    22    2
    30    19    20   ar
    31     6     7    1
    32     6    11    1
    33     7     8    1
    34     7     9    1
    35     8    13    1
    36     9    10    1
    37     9    12    1
    38    10    11    1
    39    10     5    1
    40    12    14    1
    41     5     4    1
    42     4     1    1
    43     1     2    2
    44     1     3    1
    45     1    24    1
    46    24    25    1
    47    25    26    2
    48    25    27    1
@<TRIPOS>MOLECULE
UD1
 46 48 0 0 0
SMALL
GASTEIGER

@<TRIPOS>ATOM
      1 P          17.5734   71.0664   -2.5222 P.3     1  UNL1        0.2189
      2 O          18.8904   70.4021   -2.6363 O.2     1  UNL1       -0.5170
      3 O          17.7089   72.3699   -1.5868 O.3     1  UNL1       -0.4371
      4 O          16.5131   70.0459   -1.8685 O.3     1  UNL1       -0.3112
      5 C          15.4519   70.8382   -1.3333 C.3     1  UNL1        0.1811
      6 C          12.8394   68.5990   -0.2904 C.3     1  UNL1        0.2383
      7 C          12.3632   69.9965    0.1790 C.3     1  UNL1        0.1895
      8 O          10.9376   70.0798    0.1715 O.3     1  UNL1       -0.3779
      9 C          12.9777   70.9285   -0.8975 C.3     1  UNL1        0.1713
     10 C          14.1251   70.0964   -1.5021 C.3     1  UNL1        0.1764
     11 O          14.1698   68.8468   -0.7925 O.3     1  UNL1       -0.3308
     12 O          12.0055   71.2506   -1.8943 O.3     1  UNL1       -0.3794
     13 H          10.7074   70.9697    0.4728 H       1  UNL1        0.2106
     14 H          11.2879   71.7162   -1.4444 H       1  UNL1        0.2105
     15 N          12.8776   67.6595    0.8310 N.ar    1  UNL1       -0.2551
     16 C          12.0180   66.6264    0.8643 C.ar    1  UNL1        0.3323
     17 N          12.0331   65.7446    1.8813 N.ar    1  UNL1       -0.2743
     18 C          12.9111   65.8905    2.8941 C.ar    1  UNL1        0.2626
     19 C          13.8178   66.9771    2.8747 C.ar    1  UNL1        0.0795
     20 C          13.7844   67.8437    1.8397 C.ar    1  UNL1        0.0869
     21 O          11.2202   66.4814   -0.0419 O.2     1  UNL1       -0.2464
     22 O          12.9225   65.0966    3.8166 O.2     1  UNL1       -0.2670
     23 H          11.4090   65.0026    1.8868 H       1  UNL1        0.1734
     24 O          17.0648   71.5045   -3.9845 O.3     1  UNL1       -0.2703
     25 P          17.7385   70.4886   -5.0348 P.3     1  UNL1        0.2208
     26 O          16.9430   70.4693   -6.2820 O.2     1  UNL1       -0.5170
     27 O          17.7780   69.0089   -4.4014 O.3     1  UNL1       -0.4371
     28 O          19.2387   70.9705   -5.3628 O.3     1  UNL1       -0.2865
     29 C          19.1698   72.3658   -5.6619 C.3     1  UNL1        0.2611
     30 C          19.9107   72.6387   -6.9721 C.3     1  UNL1        0.1582
     31 C          21.3685   72.1879   -6.8267 C.3     1  UNL1        0.1625
     32 C          21.9679   72.8595   -5.5866 C.3     1  UNL1        0.1686
     33 C          21.0732   72.5673   -4.3802 C.3     1  UNL1        0.1760
     34 O          22.1069   72.5728   -7.9878 O.3     1  UNL1       -0.3801
     35 O          23.2779   72.3411   -5.3485 O.3     1  UNL1       -0.3794
     36 O          19.7714   73.1078   -4.6032 O.3     1  UNL1       -0.3263
     37 H          23.0156   72.2701   -7.8541 H       1  UNL1        0.2105
     38 H          23.6171   72.7891   -4.5606 H       1  UNL1        0.2105
     39 C          19.7279   70.6720   -8.3980 C.2     1  UNL1        0.2231
     40 C          19.0715   69.9060   -9.5181 C.3     1  UNL1        0.0946
     41 N          19.2731   71.8939   -8.0598 N.am    1  UNL1       -0.2994
     42 O          20.6663   70.1886   -7.8014 O.2     1  UNL1       -0.2751
     43 H          18.5223   72.2811   -8.5373 H       1  UNL1        0.1496
     44 C          21.6804   73.2067   -3.1297 C.3     1  UNL1        0.1693
     45 O          20.8226   72.9739   -2.0108 O.3     1  UNL1       -0.3794
     46 H          21.2406   73.3921   -1.2460 H       1  UNL1        0.2105
@<TRIPOS>BOND
     1    29    30    1
     2    29    28    1
     3    29    36    1
     4    30    31    1
     5    30    41    1
     6    31    32    1
     7    31    34    1
     8    32    33    1
     9    32    35    1
    10    33    44    1
    11    33    36    1
    12    44    45    1
    13    39    40    1
    14    39    41   am
    15    39    42    2
    16    41    43    1
    17    28    25    1
    18    34    37    1
    19    35    38    1
    20    45    46    1
    21    15    16   ar
    22    15    20   ar
    23    15     6    1
    24    16    17   ar
    25    16    21    2
    26    17    18   ar
    27    17    23    1
    28    18    19   ar
    29    18    22    2
    30    19    20   ar
    31     6     7    1
    32     6    11    1
    33     7     8    1
    34     7     9    1
    35     8    13    1
    36     9    10    1
    37     9    12    1
    38    10    11    1
    39    10     5    1
    40    12    14    1
    41     5     4    1
    42     4     1    1
    43     1     2    2
    44     1     3    1
    45     1    24    1
    46    24    25    1
    47    25    26    2
    48    25    27    1
