@<TRIPOS>MOLECULE
UDP-glaA
 43 45 0 0 0
SMALL
GASTEIGER

@<TRIPOS>ATOM
      1 P          22.8402   72.1295   -3.2954 P.3     1  UNL1        0.2189
      2 O          23.8067   72.7648   -4.4266 O.3     1  UNL1       -0.4371
      3 O          23.4769   71.0746   -2.4387 O.2     1  UNL1       -0.5170
      4 O          21.5271   71.6680   -4.1190 O.3     1  UNL1       -0.3112
      5 C          20.7026   70.6555   -3.5675 C.3     1  UNL1        0.1811
      6 O          18.9014   71.8327   -4.6371 O.3     1  UNL1       -0.3308
      7 O          17.1424   70.7246   -2.4763 O.3     1  UNL1       -0.3794
      8 O          16.6003   69.0835   -4.5855 O.3     1  UNL1       -0.3779
      9 C          18.2544   70.1186   -3.1352 C.3     1  UNL1        0.1713
     10 C          17.8695   69.7019   -4.5391 C.3     1  UNL1        0.1895
     11 C          19.2923   71.2020   -3.3976 C.3     1  UNL1        0.1764
     12 C          17.9011   71.0270   -5.2816 C.3     1  UNL1        0.2383
     13 H          17.4464   71.0096   -1.5977 H       1  UNL1        0.2105
     14 H          16.6316   68.3068   -4.0008 H       1  UNL1        0.2106
     15 O          16.0435   70.4874   -7.3392 O.2     1  UNL1       -0.2464
     16 O          19.3423   70.4488  -10.5571 O.2     1  UNL1       -0.2670
     17 N          18.2467   70.8717   -6.6657 N.ar    1  UNL1       -0.2551
     18 N          17.6875   70.4681   -8.9402 N.ar    1  UNL1       -0.2743
     19 C          17.2380   70.6014   -7.6198 C.ar    1  UNL1        0.3323
     20 C          19.5733   70.9871   -7.0660 C.ar    1  UNL1        0.0869
     21 C          19.9858   70.8578   -8.3289 C.ar    1  UNL1        0.0795
     22 C          18.9956   70.5740   -9.3866 C.ar    1  UNL1        0.2626
     23 H          16.9797   70.2729   -9.6431 H       1  UNL1        0.1734
     24 O          22.3231   73.4316   -2.4876 O.3     1  UNL1       -0.2703
     25 P          23.1401   74.6160   -1.7513 P.3     1  UNL1        0.2208
     26 O          22.2823   75.9388   -2.1127 O.3     1  UNL1       -0.4371
     27 O          24.5905   74.6939   -2.1337 O.2     1  UNL1       -0.5170
     28 O          22.8777   74.3765   -0.1772 O.3     1  UNL1       -0.2858
     29 O          21.5625   72.4519    0.2298 O.3     1  UNL1       -0.3226
     30 O          21.8437   74.1325    4.0214 O.3     1  UNL1       -0.3794
     31 O          21.4319   75.8208    1.6792 O.3     1  UNL1       -0.3775
     32 O          20.9008   71.7726    2.9389 O.3     1  UNL1       -0.3792
     33 C          22.2394   73.7692    2.7016 C.3     1  UNL1        0.1718
     34 C          21.3014   74.4032    1.6689 C.3     1  UNL1        0.1968
     35 C          22.2027   72.2437    2.5759 C.3     1  UNL1        0.1723
     36 C          21.6126   73.8821    0.2603 C.3     1  UNL1        0.2706
     37 C          22.4855   71.8410    1.1302 C.3     1  UNL1        0.1830
     38 H          22.4620   73.7081    4.6403 H       1  UNL1        0.2105
     39 H          20.8282   76.1759    1.0052 H       1  UNL1        0.2106
     40 H          20.2824   71.9896    2.2208 H       1  UNL1        0.2106
     41 O          23.3810   69.6999    1.4727 O.co2   1  UNL1       -0.5466
     42 O          21.3917   69.8284    0.3667 O.co2   1  UNL1       -0.5466
     43 C          22.3322   70.3664    0.9329 C.2     1  UNL1        0.0799
@<TRIPOS>UNITY_ATOM_ATTR
41 1
charge -1
@<TRIPOS>BOND
     1     1     4    1
     2     1    24    1
     3     1     2    1
     4     1     3    2
     5    25    28    1
     6    25    24    1
     7    25    26    1
     8    25    27    2
     9     6    11    1
    10     6    12    1
    11    29    36    1
    12    29    37    1
    13     7     9    1
    14     7    13    1
    15     8    10    1
    16     8    14    1
    17     4     5    1
    18    28    36    1
    19    30    33    1
    20    30    38    1
    21    31    34    1
    22    31    39    1
    23    32    35    1
    24    32    40    1
    25    41    43   ar
    26    15    19    2
    27    42    43   ar
    28    16    22    2
    29    17    12    1
    30    17    19   ar
    31    17    20   ar
    32    18    19   ar
    33    18    22   ar
    34    18    23    1
    35     9    10    1
    36     9    11    1
    37    10    12    1
    38    11     5    1
    39    33    34    1
    40    33    35    1
    41    34    36    1
    42    35    37    1
    43    37    43    1
    44    20    21   ar
    45    21    22   ar
@<TRIPOS>MOLECULE
UDP-glaA
 43 45 0 0 0
SMALL
GASTEIGER

@<TRIPOS>ATOM
      1 P          21.8422   74.0589   -5.5560 P.3     1  UNL1        0.2189
      2 O          20.5354   74.8125   -4.9714 O.3     1  UNL1       -0.4371
      3 O          23.0902   74.8916   -5.5915 O.2     1  UNL1       -0.5170
      4 O          21.3488   73.4709   -6.9795 O.3     1  UNL1       -0.3112
      5 C          20.2272   74.0685   -7.6072 C.3     1  UNL1        0.1811
      6 O          19.6882   71.7856   -8.1288 O.3     1  UNL1       -0.3308
      7 O          18.0418   72.8849  -10.3810 O.3     1  UNL1       -0.3794
      8 O          16.1617   72.3262   -8.4866 O.3     1  UNL1       -0.3779
      9 C          18.2536   73.4172   -9.0735 C.3     1  UNL1        0.1713
     10 C          17.4723   72.6212   -8.0496 C.3     1  UNL1        0.1895
     11 C          19.6937   73.1233   -8.6743 C.3     1  UNL1        0.1764
     12 C          18.3303   71.3771   -7.8951 C.3     1  UNL1        0.2383
     13 H          18.5910   73.4003  -10.9962 H       1  UNL1        0.2105
     14 H          15.7160   73.1718   -8.6667 H       1  UNL1        0.2106
     15 O          16.1262   69.8747   -6.9677 O.2     1  UNL1       -0.2464
     16 O          18.0699   69.2294   -2.8392 O.2     1  UNL1       -0.2670
     17 N          18.2341   70.8043   -6.5829 N.ar    1  UNL1       -0.2551
     18 N          17.0953   69.5548   -4.9123 N.ar    1  UNL1       -0.2743
     19 C          17.0835   70.0678   -6.2160 C.ar    1  UNL1        0.3323
     20 C          19.2728   70.9747   -5.6743 C.ar    1  UNL1        0.0869
     21 C          19.2692   70.4789   -4.4349 C.ar    1  UNL1        0.0795
     22 C          18.1045   69.6983   -3.9727 C.ar    1  UNL1        0.2626
     23 H          16.2780   69.0224   -4.6265 H       1  UNL1        0.1734
     24 O          21.9415   72.7358   -4.6314 O.3     1  UNL1       -0.2703
     25 P          23.0114   72.3138   -3.4958 P.3     1  UNL1        0.2208
     26 O          24.3365   73.1451   -3.9071 O.3     1  UNL1       -0.4371
     27 O          23.2234   70.8323   -3.3693 O.2     1  UNL1       -0.5170
     28 O          22.4823   73.0288   -2.1494 O.3     1  UNL1       -0.2858
     29 O          21.6746   71.2910   -0.7612 O.3     1  UNL1       -0.3226
     30 O          21.1222   74.6449    1.6315 O.3     1  UNL1       -0.3794
     31 O          20.5301   74.7471   -1.2225 O.3     1  UNL1       -0.3775
     32 O          20.9371   71.9066    1.9435 O.3     1  UNL1       -0.3792
     33 C          21.7313   73.7950    0.6636 C.3     1  UNL1        0.1718
     34 C          20.7722   73.5418   -0.5045 C.3     1  UNL1        0.1968
     35 C          22.1032   72.4690    1.3329 C.3     1  UNL1        0.1723
     36 C          21.3500   72.4946   -1.4646 C.3     1  UNL1        0.2706
     37 C          22.6269   71.4927    0.2819 C.3     1  UNL1        0.1830
     38 H          21.7625   74.7756    2.3516 H       1  UNL1        0.2105
     39 H          19.9274   74.5360   -1.9553 H       1  UNL1        0.2106
     40 H          20.3606   71.5560    1.2436 H       1  UNL1        0.2106
     41 O          22.3362   69.1724    0.0939 O.co2   1  UNL1       -0.5466
     42 O          23.4971   69.9300    1.9037 O.co2   1  UNL1       -0.5466
     43 C          22.8809   70.1408    0.8691 C.2     1  UNL1        0.0799
@<TRIPOS>UNITY_ATOM_ATTR
41 1
charge -1
@<TRIPOS>BOND
     1     1     4    1
     2     1    24    1
     3     1     2    1
     4     1     3    2
     5    25    28    1
     6    25    24    1
     7    25    26    1
     8    25    27    2
     9     6    11    1
    10     6    12    1
    11    29    36    1
    12    29    37    1
    13     7     9    1
    14     7    13    1
    15     8    10    1
    16     8    14    1
    17     4     5    1
    18    28    36    1
    19    30    33    1
    20    30    38    1
    21    31    34    1
    22    31    39    1
    23    32    35    1
    24    32    40    1
    25    41    43   ar
    26    15    19    2
    27    42    43   ar
    28    16    22    2
    29    17    12    1
    30    17    19   ar
    31    17    20   ar
    32    18    19   ar
    33    18    22   ar
    34    18    23    1
    35     9    10    1
    36     9    11    1
    37    10    12    1
    38    11     5    1
    39    33    34    1
    40    33    35    1
    41    34    36    1
    42    35    37    1
    43    37    43    1
    44    20    21   ar
    45    21    22   ar
@<TRIPOS>MOLECULE
UDP-glaA
 43 45 0 0 0
SMALL
GASTEIGER

@<TRIPOS>ATOM
      1 P          22.9571   71.6615   -2.6870 P.3     1  UNL1        0.2189
      2 O          23.7669   72.9729   -3.1786 O.3     1  UNL1       -0.4371
      3 O          23.4544   70.3624   -3.2500 O.2     1  UNL1       -0.5170
      4 O          21.4111   72.0177   -3.0010 O.3     1  UNL1       -0.3112
      5 C          20.5782   71.0047   -3.5387 C.3     1  UNL1        0.1811
      6 O          18.7115   72.0033   -4.6756 O.3     1  UNL1       -0.3308
      7 O          17.0008   70.8100   -2.5213 O.3     1  UNL1       -0.3794
      8 O          16.6406   69.0775   -4.5960 O.3     1  UNL1       -0.3779
      9 C          18.1726   70.2806   -3.1413 C.3     1  UNL1        0.1713
     10 C          17.8541   69.7985   -4.5409 C.3     1  UNL1        0.1895
     11 C          19.1247   71.4381   -3.4119 C.3     1  UNL1        0.1764
     12 C          17.7944   71.1025   -5.3180 C.3     1  UNL1        0.2383
     13 H          17.2611   71.1411   -1.6448 H       1  UNL1        0.2105
     14 H          16.7219   68.3209   -3.9901 H       1  UNL1        0.2106
     15 O          16.0236   70.4072   -7.4052 O.2     1  UNL1       -0.2464
     16 O          19.3948   70.5088  -10.5457 O.2     1  UNL1       -0.2670
     17 N          18.1821   70.9411   -6.6902 N.ar    1  UNL1       -0.2551
     18 N          17.7036   70.4578   -8.9676 N.ar    1  UNL1       -0.2743
     19 C          17.2152   70.5895   -7.6609 C.ar    1  UNL1        0.3323
     20 C          19.5083   71.1307   -7.0627 C.ar    1  UNL1        0.0869
     21 C          19.9581   71.0018   -8.3128 C.ar    1  UNL1        0.0795
     22 C          19.0131   70.6357   -9.3864 C.ar    1  UNL1        0.2626
     23 H          17.0263   70.2049   -9.6820 H       1  UNL1        0.1734
     24 O          23.0347   71.7707   -1.0754 O.3     1  UNL1       -0.2703
     25 P          22.4923   70.7810    0.0818 P.3     1  UNL1        0.2208
     26 O          23.6650   69.6737    0.2028 O.3     1  UNL1       -0.4371
     27 O          21.1278   70.2125   -0.1838 O.2     1  UNL1       -0.5170
     28 O          22.6024   71.6428    1.4416 O.3     1  UNL1       -0.2858
     29 O          21.6205   72.4418    3.4408 O.3     1  UNL1       -0.3226
     30 O          21.3518   75.7602    0.9517 O.3     1  UNL1       -0.3794
     31 O          20.8065   73.0869   -0.0790 O.3     1  UNL1       -0.3775
     32 O          20.9103   75.2169    3.6237 O.3     1  UNL1       -0.3792
     33 C          21.8914   74.5673    1.5141 C.3     1  UNL1        0.1718
     34 C          20.9273   73.3946    1.3058 C.3     1  UNL1        0.1968
     35 C          22.1307   74.7894    3.0100 C.3     1  UNL1        0.1723
     36 C          21.4173   72.1489    2.0545 C.3     1  UNL1        0.2706
     37 C          22.5746   73.4800    3.6587 C.3     1  UNL1        0.1830
     38 H          21.9926   76.4745    1.1087 H       1  UNL1        0.2105
     39 H          20.1959   72.3350   -0.1603 H       1  UNL1        0.2106
     40 H          20.3123   74.4529    3.6870 H       1  UNL1        0.2106
     41 O          23.8610   74.2238    5.4741 O.co2   1  UNL1       -0.5466
     42 O          21.8601   73.2418    5.9527 O.co2   1  UNL1       -0.5466
     43 C          22.6952   73.6180    5.1430 C.2     1  UNL1        0.0799
@<TRIPOS>UNITY_ATOM_ATTR
41 1
charge -1
@<TRIPOS>BOND
     1     1     4    1
     2     1    24    1
     3     1     2    1
     4     1     3    2
     5    25    28    1
     6    25    24    1
     7    25    26    1
     8    25    27    2
     9     6    11    1
    10     6    12    1
    11    29    36    1
    12    29    37    1
    13     7     9    1
    14     7    13    1
    15     8    10    1
    16     8    14    1
    17     4     5    1
    18    28    36    1
    19    30    33    1
    20    30    38    1
    21    31    34    1
    22    31    39    1
    23    32    35    1
    24    32    40    1
    25    41    43   ar
    26    15    19    2
    27    42    43   ar
    28    16    22    2
    29    17    12    1
    30    17    19   ar
    31    17    20   ar
    32    18    19   ar
    33    18    22   ar
    34    18    23    1
    35     9    10    1
    36     9    11    1
    37    10    12    1
    38    11     5    1
    39    33    34    1
    40    33    35    1
    41    34    36    1
    42    35    37    1
    43    37    43    1
    44    20    21   ar
    45    21    22   ar
@<TRIPOS>MOLECULE
UDP-glaA
 43 45 0 0 0
SMALL
GASTEIGER

@<TRIPOS>ATOM
      1 P          22.8410   71.8622   -2.5136 P.3     1  UNL1        0.2189
      2 O          23.6390   73.2594   -2.6824 O.3     1  UNL1       -0.4371
      3 O          23.4599   70.6906   -3.2181 O.2     1  UNL1       -0.5170
      4 O          21.3259   72.2238   -2.9485 O.3     1  UNL1       -0.3112
      5 C          20.5483   71.2260   -3.5880 C.3     1  UNL1        0.1811
      6 O          18.6370   72.1009   -4.7524 O.3     1  UNL1       -0.3308
      7 O          16.9838   70.8952   -2.5603 O.3     1  UNL1       -0.3794
      8 O          16.7054   69.0850   -4.5806 O.3     1  UNL1       -0.3779
      9 C          18.1792   70.4025   -3.1654 C.3     1  UNL1        0.1713
     10 C          17.8838   69.8634   -4.5491 C.3     1  UNL1        0.1895
     11 C          19.0760   71.5946   -3.4725 C.3     1  UNL1        0.1764
     12 C          17.7631   71.1388   -5.3657 C.3     1  UNL1        0.2383
     13 H          17.2282   71.2648   -1.6947 H       1  UNL1        0.2105
     14 H          16.8220   68.3520   -3.9519 H       1  UNL1        0.2106
     15 O          15.9999   70.4266   -7.4535 O.2     1  UNL1       -0.2464
     16 O          19.3915   70.4542  -10.5736 O.2     1  UNL1       -0.2670
     17 N          18.1581   70.9538   -6.7329 N.ar    1  UNL1       -0.2551
     18 N          17.6900   70.4403   -9.0058 N.ar    1  UNL1       -0.2743
     19 C          17.1945   70.5955   -7.7044 C.ar    1  UNL1        0.3323
     20 C          19.4881   71.1272   -7.0996 C.ar    1  UNL1        0.0869
     21 C          19.9447   70.9761   -8.3448 C.ar    1  UNL1        0.0795
     22 C          19.0035   70.6015   -9.4188 C.ar    1  UNL1        0.2626
     23 H          17.0152   70.1822   -9.7207 H       1  UNL1        0.1734
     24 O          22.7292   71.7005   -0.9084 O.3     1  UNL1       -0.2703
     25 P          22.0590   70.5407   -0.0038 P.3     1  UNL1        0.2208
     26 O          23.3324   69.6782    0.4968 O.3     1  UNL1       -0.4371
     27 O          21.0062   69.7376   -0.7127 O.2     1  UNL1       -0.5170
     28 O          21.5373   71.3039    1.3188 O.3     1  UNL1       -0.2858
     29 O          21.9830   73.6116    1.0447 O.3     1  UNL1       -0.3226
     30 O          20.2260   73.5052    4.8104 O.3     1  UNL1       -0.3794
     31 O          22.1384   71.4542    4.0093 O.3     1  UNL1       -0.3775
     32 O          21.0120   75.4551    3.0188 O.3     1  UNL1       -0.3792
     33 C          20.4778   73.1404    3.4563 C.3     1  UNL1        0.1718
     34 C          21.9252   72.6649    3.2912 C.3     1  UNL1        0.1968
     35 C          20.2199   74.3547    2.5600 C.3     1  UNL1        0.1723
     36 C          22.2558   72.4340    1.8114 C.3     1  UNL1        0.2706
     37 C          20.6201   74.0264    1.1233 C.3     1  UNL1        0.1830
     38 H          19.3015   73.8013    4.8674 H       1  UNL1        0.2105
     39 H          23.0625   71.1880    3.8677 H       1  UNL1        0.2106
     40 H          21.9386   75.2919    2.7742 H       1  UNL1        0.2106
     41 O          20.9317   74.9348   -1.0172 O.co2   1  UNL1       -0.5466
     42 O          20.0872   76.3191    0.5852 O.co2   1  UNL1       -0.5466
     43 C          20.5070   75.2253    0.2362 C.2     1  UNL1        0.0799
@<TRIPOS>UNITY_ATOM_ATTR
41 1
charge -1
@<TRIPOS>BOND
     1     1     4    1
     2     1    24    1
     3     1     2    1
     4     1     3    2
     5    25    28    1
     6    25    24    1
     7    25    26    1
     8    25    27    2
     9     6    11    1
    10     6    12    1
    11    29    36    1
    12    29    37    1
    13     7     9    1
    14     7    13    1
    15     8    10    1
    16     8    14    1
    17     4     5    1
    18    28    36    1
    19    30    33    1
    20    30    38    1
    21    31    34    1
    22    31    39    1
    23    32    35    1
    24    32    40    1
    25    41    43   ar
    26    15    19    2
    27    42    43   ar
    28    16    22    2
    29    17    12    1
    30    17    19   ar
    31    17    20   ar
    32    18    19   ar
    33    18    22   ar
    34    18    23    1
    35     9    10    1
    36     9    11    1
    37    10    12    1
    38    11     5    1
    39    33    34    1
    40    33    35    1
    41    34    36    1
    42    35    37    1
    43    37    43    1
    44    20    21   ar
    45    21    22   ar
@<TRIPOS>MOLECULE
UDP-glaA
 43 45 0 0 0
SMALL
GASTEIGER

@<TRIPOS>ATOM
      1 P          21.8866   70.8876   -1.2867 P.3     1  UNL1        0.2189
      2 O          23.0270   70.0862   -0.4655 O.3     1  UNL1       -0.4371
      3 O          20.8199   71.5163   -0.4387 O.2     1  UNL1       -0.5170
      4 O          21.3720   69.8172   -2.3844 O.3     1  UNL1       -0.3112
      5 C          20.8808   70.3003   -3.6232 C.3     1  UNL1        0.1811
      6 O          19.1606   71.6591   -4.6075 O.3     1  UNL1       -0.3308
      7 O          17.3720   70.6469   -2.4240 O.3     1  UNL1       -0.3794
      8 O          16.6300   69.1195   -4.5575 O.3     1  UNL1       -0.3779
      9 C          18.4079   69.9657   -3.1315 C.3     1  UNL1        0.1713
     10 C          17.9493   69.6239   -4.5334 C.3     1  UNL1        0.1895
     11 C          19.5289   70.9620   -3.3969 C.3     1  UNL1        0.1764
     12 C          18.0761   70.9617   -5.2421 C.3     1  UNL1        0.2383
     13 H          17.7239   70.8796   -1.5479 H       1  UNL1        0.2105
     14 H          16.6094   68.3267   -3.9943 H       1  UNL1        0.2106
     15 O          16.1341   70.4907   -7.2377 O.2     1  UNL1       -0.2464
     16 O          19.3138   70.4183  -10.5727 O.2     1  UNL1       -0.2670
     17 N          18.3683   70.8162   -6.6395 N.ar    1  UNL1       -0.2551
     18 N          17.7188   70.4545   -8.8970 N.ar    1  UNL1       -0.2743
     19 C          17.3201   70.5811   -7.5598 C.ar    1  UNL1        0.3323
     20 C          19.6820   70.9066   -7.0860 C.ar    1  UNL1        0.0869
     21 C          20.0459   70.7841   -8.3645 C.ar    1  UNL1        0.0795
     22 C          19.0122   70.5364   -9.3890 C.ar    1  UNL1        0.2626
     23 H          16.9820   70.2844   -9.5762 H       1  UNL1        0.1734
     24 O          22.7452   71.9326   -2.1732 O.3     1  UNL1       -0.2703
     25 P          23.0312   73.5105   -1.9704 P.3     1  UNL1        0.2208
     26 O          21.5715   74.1799   -2.1634 O.3     1  UNL1       -0.4371
     27 O          24.0926   74.0656   -2.8765 O.2     1  UNL1       -0.5170
     28 O          23.3485   73.6695   -0.3962 O.3     1  UNL1       -0.2858
     29 O          21.9027   73.8160    1.4713 O.3     1  UNL1       -0.3226
     30 O          25.0523   76.2769    2.6130 O.3     1  UNL1       -0.3794
     31 O          24.0515   76.3257   -0.1260 O.3     1  UNL1       -0.3775
     32 O          22.7936   75.2267    3.8069 O.3     1  UNL1       -0.3792
     33 C          24.3866   75.1810    1.9916 C.3     1  UNL1        0.1718
     34 C          23.3788   75.6868    0.9539 C.3     1  UNL1        0.1968
     35 C          23.6654   74.3649    3.0678 C.3     1  UNL1        0.1723
     36 C          22.5373   74.5283    0.4042 C.3     1  UNL1        0.2706
     37 C          22.8302   73.2699    2.4079 C.3     1  UNL1        0.1830
     38 H          25.6770   75.9108    3.2621 H       1  UNL1        0.2105
     39 H          23.3758   76.6197   -0.7598 H       1  UNL1        0.2106
     40 H          22.0252   75.4394    3.2506 H       1  UNL1        0.2106
     41 O          20.9653   71.9050    2.8116 O.co2   1  UNL1       -0.5466
     42 O          22.2362   72.4857    4.6129 O.co2   1  UNL1       -0.5466
     43 C          22.0065   72.5293    3.4130 C.2     1  UNL1        0.0799
@<TRIPOS>UNITY_ATOM_ATTR
41 1
charge -1
@<TRIPOS>BOND
     1     1     4    1
     2     1    24    1
     3     1     2    1
     4     1     3    2
     5    25    28    1
     6    25    24    1
     7    25    26    1
     8    25    27    2
     9     6    11    1
    10     6    12    1
    11    29    36    1
    12    29    37    1
    13     7     9    1
    14     7    13    1
    15     8    10    1
    16     8    14    1
    17     4     5    1
    18    28    36    1
    19    30    33    1
    20    30    38    1
    21    31    34    1
    22    31    39    1
    23    32    35    1
    24    32    40    1
    25    41    43   ar
    26    15    19    2
    27    42    43   ar
    28    16    22    2
    29    17    12    1
    30    17    19   ar
    31    17    20   ar
    32    18    19   ar
    33    18    22   ar
    34    18    23    1
    35     9    10    1
    36     9    11    1
    37    10    12    1
    38    11     5    1
    39    33    34    1
    40    33    35    1
    41    34    36    1
    42    35    37    1
    43    37    43    1
    44    20    21   ar
    45    21    22   ar
@<TRIPOS>MOLECULE
UDP-glaA
 43 45 0 0 0
SMALL
GASTEIGER

@<TRIPOS>ATOM
      1 P          22.0305   70.8370   -1.2052 P.3     1  UNL1        0.2189
      2 O          23.2907   70.0406   -0.5767 O.3     1  UNL1       -0.4371
      3 O          21.0000   71.2792   -0.2078 O.2     1  UNL1       -0.5170
      4 O          21.4985   69.8603   -2.3794 O.3     1  UNL1       -0.3112
      5 C          20.9976   70.4432   -3.5704 C.3     1  UNL1        0.1811
      6 O          19.1855   71.7357   -4.4760 O.3     1  UNL1       -0.3308
      7 O          17.4979   70.5475   -2.3009 O.3     1  UNL1       -0.3794
      8 O          16.8031   69.0562   -4.4755 O.3     1  UNL1       -0.3779
      9 C          18.5570   69.9516   -3.0497 C.3     1  UNL1        0.1713
     10 C          18.0922   69.6336   -4.4552 C.3     1  UNL1        0.1895
     11 C          19.6151   71.0186   -3.2977 C.3     1  UNL1        0.1764
     12 C          18.1302   71.0005   -5.1172 C.3     1  UNL1        0.2383
     13 H          17.8526   70.7689   -1.4230 H       1  UNL1        0.2105
     14 H          16.8377   68.2442   -3.9410 H       1  UNL1        0.2106
     15 O          16.1963   70.4083   -7.0881 O.2     1  UNL1       -0.2464
     16 O          19.2958   70.7202  -10.4843 O.2     1  UNL1       -0.2670
     17 N          18.4039   70.9211   -6.5236 N.ar    1  UNL1       -0.2551
     18 N          17.7411   70.5634   -8.7779 N.ar    1  UNL1       -0.2743
     19 C          17.3618   70.6161   -7.4301 C.ar    1  UNL1        0.3323
     20 C          19.6939   71.1440   -6.9924 C.ar    1  UNL1        0.0869
     21 C          20.0395   71.0907   -8.2807 C.ar    1  UNL1        0.0795
     22 C          19.0106   70.7773   -9.2921 C.ar    1  UNL1        0.2626
     23 H          17.0083   70.3452   -9.4475 H       1  UNL1        0.1734
     24 O          22.7344   72.0402   -2.0248 O.3     1  UNL1       -0.2703
     25 P          22.6475   73.6434   -1.8379 P.3     1  UNL1        0.2208
     26 O          23.1192   73.8645   -0.3066 O.3     1  UNL1       -0.4371
     27 O          21.3035   74.2295   -2.1634 O.2     1  UNL1       -0.5170
     28 O          23.8617   74.2252   -2.7273 O.3     1  UNL1       -0.2858
     29 O          25.8617   75.4361   -2.3628 O.3     1  UNL1       -0.3226
     30 O          24.2541   77.3834   -5.6648 O.3     1  UNL1       -0.3794
     31 O          22.5378   76.5328   -3.4656 O.3     1  UNL1       -0.3775
     32 O          26.6357   77.4399   -4.2666 O.3     1  UNL1       -0.3792
     33 C          24.5662   76.3069   -4.7850 C.3     1  UNL1        0.1718
     34 C          23.9597   76.5557   -3.3998 C.3     1  UNL1        0.1968
     35 C          26.0884   76.1821   -4.6757 C.3     1  UNL1        0.1723
     36 C          24.4319   75.4919   -2.4010 C.3     1  UNL1        0.2706
     37 C          26.4430   75.1283   -3.6289 C.3     1  UNL1        0.1830
     38 H          24.6590   77.1850   -6.5263 H       1  UNL1        0.2105
     39 H          22.2000   76.6849   -2.5669 H       1  UNL1        0.2106
     40 H          26.4356   77.5721   -3.3245 H       1  UNL1        0.2106
     41 O          28.1884   74.9183   -2.0755 O.co2   1  UNL1       -0.5466
     42 O          28.7710   75.1301   -4.2692 O.co2   1  UNL1       -0.5466
     43 C          27.9189   75.0641   -3.3952 C.2     1  UNL1        0.0799
@<TRIPOS>UNITY_ATOM_ATTR
41 1
charge -1
@<TRIPOS>BOND
     1     1     4    1
     2     1    24    1
     3     1     2    1
     4     1     3    2
     5    25    28    1
     6    25    24    1
     7    25    26    1
     8    25    27    2
     9     6    11    1
    10     6    12    1
    11    29    36    1
    12    29    37    1
    13     7     9    1
    14     7    13    1
    15     8    10    1
    16     8    14    1
    17     4     5    1
    18    28    36    1
    19    30    33    1
    20    30    38    1
    21    31    34    1
    22    31    39    1
    23    32    35    1
    24    32    40    1
    25    41    43   ar
    26    15    19    2
    27    42    43   ar
    28    16    22    2
    29    17    12    1
    30    17    19   ar
    31    17    20   ar
    32    18    19   ar
    33    18    22   ar
    34    18    23    1
    35     9    10    1
    36     9    11    1
    37    10    12    1
    38    11     5    1
    39    33    34    1
    40    33    35    1
    41    34    36    1
    42    35    37    1
    43    37    43    1
    44    20    21   ar
    45    21    22   ar
@<TRIPOS>MOLECULE
UDP-glaA
 43 45 0 0 0
SMALL
GASTEIGER

@<TRIPOS>ATOM
      1 P          22.6739   71.0610   -1.9449 P.3     1  UNL1        0.2189
      2 O          23.5177   70.5034   -3.2075 O.3     1  UNL1       -0.4371
      3 O          23.0995   70.5211   -0.6109 O.2     1  UNL1       -0.5170
      4 O          21.1333   70.7881   -2.3545 O.3     1  UNL1       -0.3112
      5 C          20.6623   71.2918   -3.5929 C.3     1  UNL1        0.1811
      6 O          18.7326   72.1730   -4.7217 O.3     1  UNL1       -0.3308
      7 O          17.1199   71.0063   -2.4791 O.3     1  UNL1       -0.3794
      8 O          16.7772   69.1779   -4.4729 O.3     1  UNL1       -0.3779
      9 C          18.2961   70.4957   -3.1065 C.3     1  UNL1        0.1713
     10 C          17.9633   69.9452   -4.4772 C.3     1  UNL1        0.1895
     11 C          19.1967   71.6758   -3.4471 C.3     1  UNL1        0.1764
     12 C          17.8356   71.2131   -5.3043 C.3     1  UNL1        0.2383
     13 H          17.3880   71.3824   -1.6233 H       1  UNL1        0.2105
     14 H          16.9016   68.4503   -3.8394 H       1  UNL1        0.2106
     15 O          16.0388   70.3894   -7.3213 O.2     1  UNL1       -0.2464
     16 O          19.3340   70.4642  -10.5422 O.2     1  UNL1       -0.2670
     17 N          18.1967   71.0101   -6.6782 N.ar    1  UNL1       -0.2551
     18 N          17.6810   70.4267   -8.9238 N.ar    1  UNL1       -0.2743
     19 C          17.2187   70.5948   -7.6119 C.ar    1  UNL1        0.3323
     20 C          19.5082   71.2220   -7.0888 C.ar    1  UNL1        0.0869
     21 C          19.9332   71.0579   -8.3434 C.ar    1  UNL1        0.0795
     22 C          18.9751   70.6248   -9.3798 C.ar    1  UNL1        0.2626
     23 H          16.9953   70.1280   -9.6120 H       1  UNL1        0.1734
     24 O          22.8114   72.6651   -2.0971 O.3     1  UNL1       -0.2703
     25 P          23.4217   73.5684   -3.2906 P.3     1  UNL1        0.2208
     26 O          22.3673   74.7892   -3.4083 O.3     1  UNL1       -0.4371
     27 O          23.6508   72.8212   -4.5732 O.2     1  UNL1       -0.5170
     28 O          24.7496   74.2348   -2.6610 O.3     1  UNL1       -0.2858
     29 O          25.5402   76.0867   -1.4180 O.3     1  UNL1       -0.3226
     30 O          27.7720   76.3672   -4.9137 O.3     1  UNL1       -0.3794
     31 O          24.9430   75.6655   -5.0144 O.3     1  UNL1       -0.3775
     32 O          27.7531   77.6009   -2.4424 O.3     1  UNL1       -0.3792
     33 C          27.0680   75.7523   -3.8382 C.3     1  UNL1        0.1718
     34 C          25.5944   76.1726   -3.8545 C.3     1  UNL1        0.1968
     35 C          27.7179   76.1718   -2.5169 C.3     1  UNL1        0.1723
     36 C          24.8684   75.6558   -2.6063 C.3     1  UNL1        0.2706
     37 C          26.8930   75.6390   -1.3473 C.3     1  UNL1        0.1830
     38 H          28.6982   76.0756   -4.8628 H       1  UNL1        0.2105
     39 H          24.0137   75.9481   -4.9761 H       1  UNL1        0.2106
     40 H          26.8528   77.9233   -2.2669 H       1  UNL1        0.2106
     41 O          28.3900   77.0577   -0.2293 O.co2   1  UNL1       -0.5466
     42 O          27.0276   75.7624    1.0602 O.co2   1  UNL1       -0.5466
     43 C          27.4182   76.1334   -0.0371 C.2     1  UNL1        0.0799
@<TRIPOS>UNITY_ATOM_ATTR
41 1
charge -1
@<TRIPOS>BOND
     1     1     4    1
     2     1    24    1
     3     1     2    1
     4     1     3    2
     5    25    28    1
     6    25    24    1
     7    25    26    1
     8    25    27    2
     9     6    11    1
    10     6    12    1
    11    29    36    1
    12    29    37    1
    13     7     9    1
    14     7    13    1
    15     8    10    1
    16     8    14    1
    17     4     5    1
    18    28    36    1
    19    30    33    1
    20    30    38    1
    21    31    34    1
    22    31    39    1
    23    32    35    1
    24    32    40    1
    25    41    43   ar
    26    15    19    2
    27    42    43   ar
    28    16    22    2
    29    17    12    1
    30    17    19   ar
    31    17    20   ar
    32    18    19   ar
    33    18    22   ar
    34    18    23    1
    35     9    10    1
    36     9    11    1
    37    10    12    1
    38    11     5    1
    39    33    34    1
    40    33    35    1
    41    34    36    1
    42    35    37    1
    43    37    43    1
    44    20    21   ar
    45    21    22   ar
@<TRIPOS>MOLECULE
UDP-glaA
 43 45 0 0 0
SMALL
GASTEIGER

@<TRIPOS>ATOM
      1 P          21.6829   70.5301   -1.1663 P.3     1  UNL1        0.2189
      2 O          23.2808   70.6961   -1.3572 O.3     1  UNL1       -0.4371
      3 O          21.2558   70.0168    0.1777 O.2     1  UNL1       -0.5170
      4 O          21.2293   69.6374   -2.4363 O.3     1  UNL1       -0.3112
      5 C          20.8235   70.3015   -3.6209 C.3     1  UNL1        0.1811
      6 O          19.0728   71.6238   -4.6012 O.3     1  UNL1       -0.3308
      7 O          17.2953   70.5269   -2.4497 O.3     1  UNL1       -0.3794
      8 O          16.6179   69.0105   -4.6124 O.3     1  UNL1       -0.3779
      9 C          18.3572   69.8871   -3.1574 C.3     1  UNL1        0.1713
     10 C          17.9214   69.5530   -4.5684 C.3     1  UNL1        0.1895
     11 C          19.4506   70.9197   -3.3976 C.3     1  UNL1        0.1764
     12 C          18.0150   70.9044   -5.2562 C.3     1  UNL1        0.2383
     13 H          17.6324   70.7567   -1.5670 H       1  UNL1        0.2105
     14 H          16.6156   68.2091   -4.0611 H       1  UNL1        0.2106
     15 O          16.1037   70.4212   -7.2782 O.2     1  UNL1       -0.2464
     16 O          19.3160   70.4768  -10.5822 O.2     1  UNL1       -0.2670
     17 N          18.3239   70.7886   -6.6528 N.ar    1  UNL1       -0.2551
     18 N          17.7047   70.4487   -8.9221 N.ar    1  UNL1       -0.2743
     19 C          17.2904   70.5442   -7.5871 C.ar    1  UNL1        0.3323
     20 C          19.6394   70.9166   -7.0847 C.ar    1  UNL1        0.0869
     21 C          20.0182   70.8234   -8.3612 C.ar    1  UNL1        0.0795
     22 C          19.0005   70.5685   -9.3999 C.ar    1  UNL1        0.2626
     23 H          16.9786   70.2727   -9.6113 H       1  UNL1        0.1734
     24 O          21.1192   72.0001   -1.5360 O.3     1  UNL1       -0.2703
     25 P          21.1718   73.3927   -0.7171 P.3     1  UNL1        0.2208
     26 O          19.6405   73.9110   -0.7678 O.3     1  UNL1       -0.4371
     27 O          22.1774   74.3776   -1.2409 O.2     1  UNL1       -0.5170
     28 O          21.4044   72.9554    0.8187 O.3     1  UNL1       -0.2858
     29 O          22.6090   74.7466    1.7881 O.3     1  UNL1       -0.3226
     30 O          21.9885   72.2473    5.0512 O.3     1  UNL1       -0.3794
     31 O          22.6943   71.1376    2.4480 O.3     1  UNL1       -0.3775
     32 O          22.9640   74.7979    4.6359 O.3     1  UNL1       -0.3792
     33 C          21.7207   72.8978    3.8121 C.3     1  UNL1        0.1718
     34 C          22.7804   72.5215    2.7710 C.3     1  UNL1        0.1968
     35 C          21.7223   74.4123    4.0374 C.3     1  UNL1        0.1723
     36 C          22.6010   73.3465    1.4906 C.3     1  UNL1        0.2706
     37 C          21.5787   75.1306    2.6974 C.3     1  UNL1        0.1830
     38 H          21.2961   72.5157    5.6790 H       1  UNL1        0.2105
     39 H          23.3756   70.9491    1.7809 H       1  UNL1        0.2106
     40 H          23.6602   74.7540    3.9587 H       1  UNL1        0.2106
     41 O          22.1646   77.1775    1.7121 O.co2   1  UNL1       -0.5466
     42 O          21.4308   77.2363    3.8696 O.co2   1  UNL1       -0.5466
     43 C          21.7052   76.6126    2.8546 C.2     1  UNL1        0.0799
@<TRIPOS>UNITY_ATOM_ATTR
41 1
charge -1
@<TRIPOS>BOND
     1     1     4    1
     2     1    24    1
     3     1     2    1
     4     1     3    2
     5    25    28    1
     6    25    24    1
     7    25    26    1
     8    25    27    2
     9     6    11    1
    10     6    12    1
    11    29    36    1
    12    29    37    1
    13     7     9    1
    14     7    13    1
    15     8    10    1
    16     8    14    1
    17     4     5    1
    18    28    36    1
    19    30    33    1
    20    30    38    1
    21    31    34    1
    22    31    39    1
    23    32    35    1
    24    32    40    1
    25    41    43   ar
    26    15    19    2
    27    42    43   ar
    28    16    22    2
    29    17    12    1
    30    17    19   ar
    31    17    20   ar
    32    18    19   ar
    33    18    22   ar
    34    18    23    1
    35     9    10    1
    36     9    11    1
    37    10    12    1
    38    11     5    1
    39    33    34    1
    40    33    35    1
    41    34    36    1
    42    35    37    1
    43    37    43    1
    44    20    21   ar
    45    21    22   ar
@<TRIPOS>MOLECULE
UDP-glaA
 43 45 0 0 0
SMALL
GASTEIGER

@<TRIPOS>ATOM
      1 P          21.5495   73.8281   -5.6604 P.3     1  UNL1        0.2189
      2 O          22.2464   75.1755   -6.2227 O.3     1  UNL1       -0.4371
      3 O          21.8674   72.5813   -6.4327 O.2     1  UNL1       -0.5170
      4 O          19.9818   74.2127   -5.5606 O.3     1  UNL1       -0.3112
      5 C          19.4016   74.3633   -4.2761 C.3     1  UNL1        0.1811
      6 O          17.5607   74.2531   -5.8166 O.3     1  UNL1       -0.3308
      7 O          15.8680   73.5246   -3.4512 O.3     1  UNL1       -0.3794
      8 O          16.3009   71.1091   -4.6402 O.3     1  UNL1       -0.3779
      9 C          17.2210   73.1703   -3.7371 C.3     1  UNL1        0.1713
     10 C          17.2698   72.1201   -4.8266 C.3     1  UNL1        0.1895
     11 C          17.8857   74.3622   -4.4132 C.3     1  UNL1        0.1764
     12 C          17.0170   72.9481   -6.0750 C.3     1  UNL1        0.2383
     13 H          15.8881   74.2258   -2.7778 H       1  UNL1        0.2105
     14 H          16.4664   70.7015   -3.7726 H       1  UNL1        0.2106
     15 O          16.6417   73.9044   -8.7056 O.2     1  UNL1       -0.2464
     16 O          19.5167   70.7563  -10.4556 O.2     1  UNL1       -0.2670
     17 N          17.6552   72.3977   -7.2365 N.ar    1  UNL1       -0.2551
     18 N          18.0732   72.3358   -9.5753 N.ar    1  UNL1       -0.2743
     19 C          17.3982   72.9508   -8.5127 C.ar    1  UNL1        0.3323
     20 C          18.5251   71.3210   -7.1047 C.ar    1  UNL1        0.0869
     21 C          19.1614   70.7461   -8.1275 C.ar    1  UNL1        0.0795
     22 C          18.9474   71.2630   -9.4938 C.ar    1  UNL1        0.2626
     23 H          17.9031   72.7165  -10.5023 H       1  UNL1        0.1734
     24 O          22.0153   73.7984   -4.1120 O.3     1  UNL1       -0.2703
     25 P          23.3074   73.1315   -3.4062 P.3     1  UNL1        0.2208
     26 O          24.5400   73.9985   -3.9937 O.3     1  UNL1       -0.4371
     27 O          23.4322   71.6506   -3.6232 O.2     1  UNL1       -0.5170
     28 O          23.2001   73.5717   -1.8574 O.3     1  UNL1       -0.2858
     29 O          21.4898   72.1744   -1.0077 O.3     1  UNL1       -0.3226
     30 O          22.8413   74.0844    2.4280 O.3     1  UNL1       -0.3794
     31 O          22.5338   75.5642   -0.0662 O.3     1  UNL1       -0.3775
     32 O          21.1194   72.0080    1.8337 O.3     1  UNL1       -0.3792
     33 C          22.8996   73.4845    1.1369 C.3     1  UNL1        0.1718
     34 C          22.0171   74.2552    0.1492 C.3     1  UNL1        0.1968
     35 C          22.4230   72.0333    1.2431 C.3     1  UNL1        0.1723
     36 C          21.9372   73.5211   -1.1951 C.3     1  UNL1        0.2706
     37 C          22.3427   71.4161   -0.1515 C.3     1  UNL1        0.1830
     38 H          23.4111   73.5637    3.0194 H       1  UNL1        0.2105
     39 H          21.9497   76.0091   -0.7032 H       1  UNL1        0.2106
     40 H          20.4760   72.3213    1.1756 H       1  UNL1        0.2106
     41 O          20.8379   69.8802   -1.0897 O.co2   1  UNL1       -0.5466
     42 O          22.0650   69.1726    0.6966 O.co2   1  UNL1       -0.5466
     43 C          21.7580   70.0402   -0.1081 C.2     1  UNL1        0.0799
@<TRIPOS>UNITY_ATOM_ATTR
41 1
charge -1
@<TRIPOS>BOND
     1     1     4    1
     2     1    24    1
     3     1     2    1
     4     1     3    2
     5    25    28    1
     6    25    24    1
     7    25    26    1
     8    25    27    2
     9     6    11    1
    10     6    12    1
    11    29    36    1
    12    29    37    1
    13     7     9    1
    14     7    13    1
    15     8    10    1
    16     8    14    1
    17     4     5    1
    18    28    36    1
    19    30    33    1
    20    30    38    1
    21    31    34    1
    22    31    39    1
    23    32    35    1
    24    32    40    1
    25    41    43   ar
    26    15    19    2
    27    42    43   ar
    28    16    22    2
    29    17    12    1
    30    17    19   ar
    31    17    20   ar
    32    18    19   ar
    33    18    22   ar
    34    18    23    1
    35     9    10    1
    36     9    11    1
    37    10    12    1
    38    11     5    1
    39    33    34    1
    40    33    35    1
    41    34    36    1
    42    35    37    1
    43    37    43    1
    44    20    21   ar
    45    21    22   ar
@<TRIPOS>MOLECULE
UDP-glaA
 43 45 0 0 0
SMALL
GASTEIGER

@<TRIPOS>ATOM
      1 P          21.6843   70.2624   -1.0513 P.3     1  UNL1        0.2189
      2 O          23.2120   70.5679   -1.4872 O.3     1  UNL1       -0.4371
      3 O          21.5334   69.4755    0.2176 O.2     1  UNL1       -0.5170
      4 O          21.0274   69.5992   -2.3720 O.3     1  UNL1       -0.3112
      5 C          20.7461   70.4353   -3.4815 C.3     1  UNL1        0.1811
      6 O          19.0095   71.7229   -4.5306 O.3     1  UNL1       -0.3308
      7 O          17.1889   70.6554   -2.4006 O.3     1  UNL1       -0.3794
      8 O          16.5759   69.0898   -4.5475 O.3     1  UNL1       -0.3779
      9 C          18.2725   70.0101   -3.0692 C.3     1  UNL1        0.1713
     10 C          17.8738   69.6439   -4.4832 C.3     1  UNL1        0.1895
     11 C          19.3635   71.0466   -3.3041 C.3     1  UNL1        0.1764
     12 C          17.9736   70.9818   -5.1960 C.3     1  UNL1        0.2383
     13 H          17.5026   70.9058   -1.5149 H       1  UNL1        0.2105
     14 H          16.5665   68.2998   -3.9801 H       1  UNL1        0.2106
     15 O          16.1204   70.4101   -7.2489 O.2     1  UNL1       -0.2464
     16 O          19.4067   70.4585  -10.4795 O.2     1  UNL1       -0.2670
     17 N          18.3172   70.8401   -6.5821 N.ar    1  UNL1       -0.2551
     18 N          17.7582   70.4341   -8.8562 N.ar    1  UNL1       -0.2743
     19 C          17.3110   70.5517   -7.5336 C.ar    1  UNL1        0.3323
     20 C          19.6393   70.9866   -6.9870 C.ar    1  UNL1        0.0869
     21 C          20.0496   70.8720   -8.2520 C.ar    1  UNL1        0.0795
     22 C          19.0619   70.5709   -9.3071 C.ar    1  UNL1        0.2626
     23 H          17.0521   70.2264   -9.5573 H       1  UNL1        0.1734
     24 O          21.0167   71.7348   -1.0141 O.3     1  UNL1       -0.2703
     25 P          21.5229   73.1116   -0.3351 P.3     1  UNL1        0.2208
     26 O          22.2265   72.6136    1.0335 O.3     1  UNL1       -0.4371
     27 O          20.4419   74.1357   -0.1395 O.2     1  UNL1       -0.5170
     28 O          22.7451   73.6022   -1.2676 O.3     1  UNL1       -0.2858
     29 O          22.3062   75.6590   -2.3521 O.3     1  UNL1       -0.3226
     30 O          25.8732   74.4801   -4.1313 O.3     1  UNL1       -0.3794
     31 O          23.7690   72.5324   -3.5978 O.3     1  UNL1       -0.3775
     32 O          24.2860   76.7408   -4.1266 O.3     1  UNL1       -0.3792
     33 C          24.8897   74.6334   -3.1118 C.3     1  UNL1        0.1718
     34 C          23.5845   73.9419   -3.5200 C.3     1  UNL1        0.1968
     35 C          24.6420   76.1270   -2.8834 C.3     1  UNL1        0.1723
     36 C          22.4701   74.2459   -2.5110 C.3     1  UNL1        0.2706
     37 C          23.4907   76.3113   -1.8970 C.3     1  UNL1        0.1830
     38 H          26.6793   74.9341   -3.8320 H       1  UNL1        0.2105
     39 H          22.9167   72.1384   -3.8492 H       1  UNL1        0.2106
     40 H          23.3773   76.4785   -4.3515 H       1  UNL1        0.2106
     41 O          23.7186   78.2809   -0.6430 O.co2   1  UNL1       -0.5466
     42 O          22.4021   78.3800   -2.5015 O.co2   1  UNL1       -0.5466
     43 C          23.1280   77.7541   -1.7427 C.2     1  UNL1        0.0799
@<TRIPOS>UNITY_ATOM_ATTR
41 1
charge -1
@<TRIPOS>BOND
     1     1     4    1
     2     1    24    1
     3     1     2    1
     4     1     3    2
     5    25    28    1
     6    25    24    1
     7    25    26    1
     8    25    27    2
     9     6    11    1
    10     6    12    1
    11    29    36    1
    12    29    37    1
    13     7     9    1
    14     7    13    1
    15     8    10    1
    16     8    14    1
    17     4     5    1
    18    28    36    1
    19    30    33    1
    20    30    38    1
    21    31    34    1
    22    31    39    1
    23    32    35    1
    24    32    40    1
    25    41    43   ar
    26    15    19    2
    27    42    43   ar
    28    16    22    2
    29    17    12    1
    30    17    19   ar
    31    17    20   ar
    32    18    19   ar
    33    18    22   ar
    34    18    23    1
    35     9    10    1
    36     9    11    1
    37    10    12    1
    38    11     5    1
    39    33    34    1
    40    33    35    1
    41    34    36    1
    42    35    37    1
    43    37    43    1
    44    20    21   ar
    45    21    22   ar
@<TRIPOS>MOLECULE
UDP-glaA
 43 45 0 0 0
SMALL
GASTEIGER

@<TRIPOS>ATOM
      1 P          21.7683   70.6250   -1.1673 P.3     1  UNL1        0.2189
      2 O          23.2644   70.1301   -0.8010 O.3     1  UNL1       -0.4371
      3 O          20.8141   70.6664   -0.0097 O.2     1  UNL1       -0.5170
      4 O          21.3348   69.6745   -2.4019 O.3     1  UNL1       -0.3112
      5 C          20.8798   70.2834   -3.5983 C.3     1  UNL1        0.1811
      6 O          19.1172   71.6155   -4.5432 O.3     1  UNL1       -0.3308
      7 O          17.3652   70.4928   -2.3841 O.3     1  UNL1       -0.3794
      8 O          16.6639   69.0007   -4.5561 O.3     1  UNL1       -0.3779
      9 C          18.4193   69.8619   -3.1112 C.3     1  UNL1        0.1713
     10 C          17.9676   69.5437   -4.5209 C.3     1  UNL1        0.1895
     11 C          19.5093   70.8980   -3.3521 C.3     1  UNL1        0.1764
     12 C          18.0524   70.9030   -5.1941 C.3     1  UNL1        0.2383
     13 H          17.7123   70.7126   -1.5028 H       1  UNL1        0.2105
     14 H          16.6685   68.1930   -4.0141 H       1  UNL1        0.2106
     15 O          16.1163   70.4561   -7.2010 O.2     1  UNL1       -0.2464
     16 O          19.2924   70.5367  -10.5393 O.2     1  UNL1       -0.2670
     17 N          18.3453   70.8034   -6.5954 N.ar    1  UNL1       -0.2551
     18 N          17.6993   70.4960   -8.8619 N.ar    1  UNL1       -0.2743
     19 C          17.3002   70.5767   -7.5213 C.ar    1  UNL1        0.3323
     20 C          19.6566   70.9299   -7.0402 C.ar    1  UNL1        0.0869
     21 C          20.0209   70.8510   -8.3219 C.ar    1  UNL1        0.0795
     22 C          18.9904   70.6150   -9.3524 C.ar    1  UNL1        0.2626
     23 H          16.9647   70.3328   -9.5452 H       1  UNL1        0.1734
     24 O          22.0237   72.0534   -1.8811 O.3     1  UNL1       -0.2703
     25 P          22.0522   73.5515   -1.2749 P.3     1  UNL1        0.2208
     26 O          23.5348   73.6663   -0.6386 O.3     1  UNL1       -0.4371
     27 O          20.9391   73.8472   -0.3108 O.2     1  UNL1       -0.5170
     28 O          22.0873   74.5155   -2.5686 O.3     1  UNL1       -0.2858
     29 O          23.4326   74.2563   -4.4980 O.3     1  UNL1       -0.3226
     30 O          22.8561   78.3715   -4.3844 O.3     1  UNL1       -0.3794
     31 O          23.3652   76.8784   -1.9313 O.3     1  UNL1       -0.3775
     32 O          23.9394   76.5465   -6.1524 O.3     1  UNL1       -0.3792
     33 C          22.5575   76.9878   -4.2209 C.3     1  UNL1        0.1718
     34 C          23.5399   76.3416   -3.2382 C.3     1  UNL1        0.1968
     35 C          22.6495   76.2969   -5.5842 C.3     1  UNL1        0.1723
     36 C          23.3362   74.8223   -3.1867 C.3     1  UNL1        0.2706
     37 C          22.4729   74.7902   -5.4089 C.3     1  UNL1        0.1830
     38 H          22.2127   78.7379   -5.0147 H       1  UNL1        0.2105
     39 H          23.9997   76.4339   -1.3443 H       1  UNL1        0.2106
     40 H          24.5957   76.0100   -5.6763 H       1  UNL1        0.2106
     41 O          22.6357   72.7210   -6.5024 O.co2   1  UNL1       -0.5466
     42 O          22.8722   74.5929   -7.7820 O.co2   1  UNL1       -0.5466
     43 C          22.6842   74.0609   -6.6975 C.2     1  UNL1        0.0799
@<TRIPOS>UNITY_ATOM_ATTR
41 1
charge -1
@<TRIPOS>BOND
     1     1     4    1
     2     1    24    1
     3     1     2    1
     4     1     3    2
     5    25    28    1
     6    25    24    1
     7    25    26    1
     8    25    27    2
     9     6    11    1
    10     6    12    1
    11    29    36    1
    12    29    37    1
    13     7     9    1
    14     7    13    1
    15     8    10    1
    16     8    14    1
    17     4     5    1
    18    28    36    1
    19    30    33    1
    20    30    38    1
    21    31    34    1
    22    31    39    1
    23    32    35    1
    24    32    40    1
    25    41    43   ar
    26    15    19    2
    27    42    43   ar
    28    16    22    2
    29    17    12    1
    30    17    19   ar
    31    17    20   ar
    32    18    19   ar
    33    18    22   ar
    34    18    23    1
    35     9    10    1
    36     9    11    1
    37    10    12    1
    38    11     5    1
    39    33    34    1
    40    33    35    1
    41    34    36    1
    42    35    37    1
    43    37    43    1
    44    20    21   ar
    45    21    22   ar
@<TRIPOS>MOLECULE
UDP-glaA
 43 45 0 0 0
SMALL
GASTEIGER

@<TRIPOS>ATOM
      1 P          22.3872   70.4321   -0.1937 P.3     1  UNL1        0.2189
      2 O          20.7908   70.1927   -0.3009 O.3     1  UNL1       -0.4371
      3 O          23.1487   69.3295    0.4820 O.2     1  UNL1       -0.5170
      4 O          22.5173   71.8944    0.4848 O.3     1  UNL1       -0.3112
      5 C          21.3613   72.4799    1.0593 C.3     1  UNL1        0.1811
      6 O          22.8306   72.6111    2.9562 O.3     1  UNL1       -0.3308
      7 O          20.3558   72.9589    4.6132 O.3     1  UNL1       -0.3794
      8 O          21.2915   75.5110    4.3976 O.3     1  UNL1       -0.3779
      9 C          20.6389   73.4421    3.3002 C.3     1  UNL1        0.1713
     10 C          21.6111   74.6011    3.3654 C.3     1  UNL1        0.1895
     11 C          21.4562   72.3810    2.5752 C.3     1  UNL1        0.1764
     12 C          22.9333   73.8912    3.6014 C.3     1  UNL1        0.2383
     13 H          19.7619   72.1947    4.5190 H       1  UNL1        0.2105
     14 H          20.3903   75.8371    4.2317 H       1  UNL1        0.2106
     15 O          25.2068   74.6960    5.0706 O.2     1  UNL1       -0.2464
     16 O          27.1428   76.6329    1.3640 O.2     1  UNL1       -0.2670
     17 N          24.0464   74.6064    3.0456 N.ar    1  UNL1       -0.2551
     18 N          26.1691   75.6605    3.2240 N.ar    1  UNL1       -0.2743
     19 C          25.1388   74.9644    3.8698 C.ar    1  UNL1        0.3323
     20 C          24.0484   74.9463    1.6973 C.ar    1  UNL1        0.0869
     21 C          25.0386   75.6097    1.0963 C.ar    1  UNL1        0.0795
     22 C          26.2159   76.0213    1.8864 C.ar    1  UNL1        0.2626
     23 H          26.9645   75.9286    3.7972 H       1  UNL1        0.1734
     24 O          22.8166   70.7046   -1.7288 O.3     1  UNL1       -0.2703
     25 P          22.3607   71.8546   -2.7691 P.3     1  UNL1        0.2208
     26 O          23.5691   71.8830   -3.8438 O.3     1  UNL1       -0.4371
     27 O          22.0676   73.1820   -2.1305 O.2     1  UNL1       -0.5170
     28 O          21.1165   71.2111   -3.5704 O.3     1  UNL1       -0.2858
     29 O          19.9636   72.2296   -5.3684 O.3     1  UNL1       -0.3226
     30 O          17.0735   69.6779   -3.8143 O.3     1  UNL1       -0.3794
     31 O          18.8197   71.1952   -2.0383 O.3     1  UNL1       -0.3775
     32 O          17.3394   71.2843   -6.0456 O.3     1  UNL1       -0.3792
     33 C          18.3691   70.1430   -4.1822 C.3     1  UNL1        0.1718
     34 C          18.7034   71.4391   -3.4361 C.3     1  UNL1        0.1968
     35 C          18.3971   70.3864   -5.6937 C.3     1  UNL1        0.1723
     36 C          20.0180   72.0385   -3.9508 C.3     1  UNL1        0.2706
     37 C          19.7301   71.0193   -6.0869 C.3     1  UNL1        0.1830
     38 H          16.9036   68.8594   -4.3111 H       1  UNL1        0.2105
     39 H          19.0407   72.0396   -1.6106 H       1  UNL1        0.2106
     40 H          17.5832   72.1788   -5.7528 H       1  UNL1        0.2106
     41 O          19.0108   70.5261   -8.2648 O.co2   1  UNL1       -0.5466
     42 O          20.3510   72.3515   -8.0025 O.co2   1  UNL1       -0.5466
     43 C          19.7521   71.3939   -7.5347 C.2     1  UNL1        0.0799
@<TRIPOS>UNITY_ATOM_ATTR
41 1
charge -1
@<TRIPOS>BOND
     1     1     4    1
     2     1    24    1
     3     1     2    1
     4     1     3    2
     5    25    28    1
     6    25    24    1
     7    25    26    1
     8    25    27    2
     9     6    11    1
    10     6    12    1
    11    29    36    1
    12    29    37    1
    13     7     9    1
    14     7    13    1
    15     8    10    1
    16     8    14    1
    17     4     5    1
    18    28    36    1
    19    30    33    1
    20    30    38    1
    21    31    34    1
    22    31    39    1
    23    32    35    1
    24    32    40    1
    25    41    43   ar
    26    15    19    2
    27    42    43   ar
    28    16    22    2
    29    17    12    1
    30    17    19   ar
    31    17    20   ar
    32    18    19   ar
    33    18    22   ar
    34    18    23    1
    35     9    10    1
    36     9    11    1
    37    10    12    1
    38    11     5    1
    39    33    34    1
    40    33    35    1
    41    34    36    1
    42    35    37    1
    43    37    43    1
    44    20    21   ar
    45    21    22   ar
@<TRIPOS>MOLECULE
UDP-glaA
 43 45 0 0 0
SMALL
GASTEIGER

@<TRIPOS>ATOM
      1 P          21.5381   73.0684   -6.0932 P.3     1  UNL1        0.2189
      2 O          21.4489   74.6772   -5.9483 O.3     1  UNL1       -0.4371
      3 O          22.6682   72.5714   -6.9465 O.2     1  UNL1       -0.5170
      4 O          20.0544   72.6373   -6.5710 O.3     1  UNL1       -0.3112
      5 C          19.6555   71.2870   -6.4069 C.3     1  UNL1        0.1811
      6 O          17.4831   70.9481   -7.3765 O.3     1  UNL1       -0.3308
      7 O          18.8741   70.9527  -10.0329 O.3     1  UNL1       -0.3794
      8 O          17.8260   73.4669   -9.9052 O.3     1  UNL1       -0.3779
      9 C          19.1581   71.7202   -8.8633 C.3     1  UNL1        0.1713
     10 C          18.1252   72.8135   -8.6890 C.3     1  UNL1        0.1895
     11 C          18.8977   70.8391   -7.6486 C.3     1  UNL1        0.1764
     12 C          16.9400   72.0425   -8.1333 C.3     1  UNL1        0.2383
     13 H          19.5367   70.2427  -10.0816 H       1  UNL1        0.2105
     14 H          18.6560   73.8400  -10.2488 H       1  UNL1        0.2106
     15 O          14.9764   73.8597   -9.0376 O.2     1  UNL1       -0.2464
     16 O          13.8526   75.0693   -4.7350 O.2     1  UNL1       -0.2670
     17 N          16.1195   72.8447   -7.2716 N.ar    1  UNL1       -0.2551
     18 N          14.4185   74.4612   -6.8945 N.ar    1  UNL1       -0.2743
     19 C          15.1633   73.7269   -7.8267 C.ar    1  UNL1        0.3323
     20 C          16.2665   72.7530   -5.8919 C.ar    1  UNL1        0.0869
     21 C          15.5484   73.4596   -5.0162 C.ar    1  UNL1        0.0795
     22 C          14.5290   74.4045   -5.5138 C.ar    1  UNL1        0.2626
     23 H          13.7254   75.1024   -7.2709 H       1  UNL1        0.1734
     24 O          21.5843   72.5681   -4.5561 O.3     1  UNL1       -0.2703
     25 P          22.8334   72.2903   -3.5686 P.3     1  UNL1        0.2208
     26 O          24.0074   73.2159   -4.1859 O.3     1  UNL1       -0.4371
     27 O          23.1967   70.8398   -3.4279 O.2     1  UNL1       -0.5170
     28 O          22.4286   73.0135   -2.1839 O.3     1  UNL1       -0.2858
     29 O          21.5396   71.3003   -0.8150 O.3     1  UNL1       -0.3226
     30 O          21.4286   74.5898    1.7240 O.3     1  UNL1       -0.3794
     31 O          20.6961   74.8616   -1.0859 O.3     1  UNL1       -0.3775
     32 O          21.0084   71.8689    1.9478 O.3     1  UNL1       -0.3792
     33 C          21.9037   73.7286    0.6930 C.3     1  UNL1        0.1718
     34 C          20.8640   73.6110   -0.4266 C.3     1  UNL1        0.1968
     35 C          22.1869   72.3483    1.2921 C.3     1  UNL1        0.1723
     36 C          21.2903   72.5561   -1.4551 C.3     1  UNL1        0.2706
     37 C          22.5610   71.3725    0.1785 C.3     1  UNL1        0.1830
     38 H          22.1159   74.6325    2.4105 H       1  UNL1        0.2105
     39 H          20.0380   74.7359   -1.7901 H       1  UNL1        0.2106
     40 H          20.3652   71.6007    1.2700 H       1  UNL1        0.2106
     41 O          23.3780   69.9865    1.8860 O.co2   1  UNL1       -0.5466
     42 O          22.3132   68.9710    0.1447 O.co2   1  UNL1       -0.5466
     43 C          22.7203   69.9803    0.7015 C.2     1  UNL1        0.0799
@<TRIPOS>UNITY_ATOM_ATTR
41 1
charge -1
@<TRIPOS>BOND
     1     1     4    1
     2     1    24    1
     3     1     2    1
     4     1     3    2
     5    25    28    1
     6    25    24    1
     7    25    26    1
     8    25    27    2
     9     6    11    1
    10     6    12    1
    11    29    36    1
    12    29    37    1
    13     7     9    1
    14     7    13    1
    15     8    10    1
    16     8    14    1
    17     4     5    1
    18    28    36    1
    19    30    33    1
    20    30    38    1
    21    31    34    1
    22    31    39    1
    23    32    35    1
    24    32    40    1
    25    41    43   ar
    26    15    19    2
    27    42    43   ar
    28    16    22    2
    29    17    12    1
    30    17    19   ar
    31    17    20   ar
    32    18    19   ar
    33    18    22   ar
    34    18    23    1
    35     9    10    1
    36     9    11    1
    37    10    12    1
    38    11     5    1
    39    33    34    1
    40    33    35    1
    41    34    36    1
    42    35    37    1
    43    37    43    1
    44    20    21   ar
    45    21    22   ar
@<TRIPOS>MOLECULE
UDP-glaA
 43 45 0 0 0
SMALL
GASTEIGER

@<TRIPOS>ATOM
      1 P          21.5670   70.5844   -0.6636 P.3     1  UNL1        0.2189
      2 O          22.9570   70.8016   -1.4623 O.3     1  UNL1       -0.4371
      3 O          21.6096   69.5332    0.4066 O.2     1  UNL1       -0.5170
      4 O          20.4767   70.3511   -1.8351 O.3     1  UNL1       -0.3112
      5 C          20.3368   71.3432   -2.8377 C.3     1  UNL1        0.1811
      6 O          18.6188   72.3596   -4.1755 O.3     1  UNL1       -0.3308
      7 O          16.6753   71.2883   -2.1590 O.3     1  UNL1       -0.3794
      8 O          16.4550   69.5008   -4.2064 O.3     1  UNL1       -0.3779
      9 C          17.8822   70.7043   -2.6491 C.3     1  UNL1        0.1713
     10 C          17.6809   70.1868   -4.0577 C.3     1  UNL1        0.1895
     11 C          18.8928   71.8236   -2.8622 C.3     1  UNL1        0.1764
     12 C          17.7371   71.4661   -4.8752 C.3     1  UNL1        0.2383
     13 H          16.8628   71.6397   -1.2719 H       1  UNL1        0.2105
     14 H          16.4543   68.7621   -3.5735 H       1  UNL1        0.2106
     15 O          16.1841   70.5620   -7.0538 O.2     1  UNL1       -0.2464
     16 O          19.7994   70.6658   -9.9099 O.2     1  UNL1       -0.2670
     17 N          18.2465   71.2487   -6.1990 N.ar    1  UNL1       -0.2551
     18 N          17.9855   70.6137   -8.4745 N.ar    1  UNL1       -0.2743
     19 C          17.3829   70.7925   -7.2222 C.ar    1  UNL1        0.3323
     20 C          19.5887   71.4871   -6.4731 C.ar    1  UNL1        0.0869
     21 C          20.1480   71.3124   -7.6724 C.ar    1  UNL1        0.0795
     22 C          19.3156   70.8371   -8.7953 C.ar    1  UNL1        0.2626
     23 H          17.3839   70.2857   -9.2251 H       1  UNL1        0.1734
     24 O          21.2176   72.0717   -0.1333 O.3     1  UNL1       -0.2703
     25 P          22.1402   73.3915    0.0063 P.3     1  UNL1        0.2208
     26 O          21.2722   74.5320   -0.7433 O.3     1  UNL1       -0.4371
     27 O          23.5359   73.2263   -0.5233 O.2     1  UNL1       -0.5170
     28 O          22.0625   73.7811    1.5703 O.3     1  UNL1       -0.2858
     29 O          23.7525   73.5748    3.2137 O.3     1  UNL1       -0.3226
     30 O          20.2878   73.1302    5.4670 O.3     1  UNL1       -0.3794
     31 O          20.5198   71.8778    2.8433 O.3     1  UNL1       -0.3775
     32 O          22.9881   73.4121    5.9756 O.3     1  UNL1       -0.3792
     33 C          21.1411   73.6095    4.4314 C.3     1  UNL1        0.1718
     34 C          21.6157   72.4491    3.5501 C.3     1  UNL1        0.1968
     35 C          22.3447   74.3112    5.0665 C.3     1  UNL1        0.1723
     36 C          22.6670   72.9279    2.5413 C.3     1  UNL1        0.2706
     37 C          23.3410   74.7067    3.9787 C.3     1  UNL1        0.1830
     38 H          20.0143   73.8963    5.9998 H       1  UNL1        0.2105
     39 H          20.8693   71.1562    2.2937 H       1  UNL1        0.2106
     40 H          23.4692   72.7431    5.4597 H       1  UNL1        0.2106
     41 O          24.5622   76.6335    4.5262 O.co2   1  UNL1       -0.5466
     42 O          25.5175   74.6236    5.0207 O.co2   1  UNL1       -0.5466
     43 C          24.5921   75.2795    4.5647 C.2     1  UNL1        0.0799
@<TRIPOS>UNITY_ATOM_ATTR
41 1
charge -1
@<TRIPOS>BOND
     1     1     4    1
     2     1    24    1
     3     1     2    1
     4     1     3    2
     5    25    28    1
     6    25    24    1
     7    25    26    1
     8    25    27    2
     9     6    11    1
    10     6    12    1
    11    29    36    1
    12    29    37    1
    13     7     9    1
    14     7    13    1
    15     8    10    1
    16     8    14    1
    17     4     5    1
    18    28    36    1
    19    30    33    1
    20    30    38    1
    21    31    34    1
    22    31    39    1
    23    32    35    1
    24    32    40    1
    25    41    43   ar
    26    15    19    2
    27    42    43   ar
    28    16    22    2
    29    17    12    1
    30    17    19   ar
    31    17    20   ar
    32    18    19   ar
    33    18    22   ar
    34    18    23    1
    35     9    10    1
    36     9    11    1
    37    10    12    1
    38    11     5    1
    39    33    34    1
    40    33    35    1
    41    34    36    1
    42    35    37    1
    43    37    43    1
    44    20    21   ar
    45    21    22   ar
@<TRIPOS>MOLECULE
UDP-glaA
 43 45 0 0 0
SMALL
GASTEIGER

@<TRIPOS>ATOM
      1 P          21.2644   74.6319   -6.0265 P.3     1  UNL1        0.2189
      2 O          20.1216   75.7466   -5.7637 O.3     1  UNL1       -0.4371
      3 O          22.5481   75.1630   -6.5940 O.2     1  UNL1       -0.5170
      4 O          20.5150   73.5075   -6.9151 O.3     1  UNL1       -0.3112
      5 C          21.2960   72.6832   -7.7635 C.3     1  UNL1        0.1811
      6 O          19.9916   70.6817   -8.0225 O.3     1  UNL1       -0.3308
      7 O          18.5535   72.1271  -10.2212 O.3     1  UNL1       -0.3794
      8 O          16.8145   72.3401   -8.1316 O.3     1  UNL1       -0.3779
      9 C          19.0691   72.6368   -8.9915 C.3     1  UNL1        0.1713
     10 C          18.1896   72.2090   -7.8357 C.3     1  UNL1        0.1895
     11 C          20.3707   71.9061   -8.6891 C.3     1  UNL1        0.1764
     12 C          18.6091   70.7622   -7.6384 C.3     1  UNL1        0.2383
     13 H          19.1689   72.3926  -10.9257 H       1  UNL1        0.2105
     14 H          16.6502   73.2732   -8.3518 H       1  UNL1        0.2106
     15 O          16.2521   69.6720   -6.5289 O.2     1  UNL1       -0.2464
     16 O          18.2189   69.1569   -2.3931 O.2     1  UNL1       -0.2670
     17 N          18.4774   70.3343   -6.2750 N.ar    1  UNL1       -0.2551
     18 N          17.2329   69.4167   -4.4700 N.ar    1  UNL1       -0.2743
     19 C          17.2498   69.8013   -5.8172 C.ar    1  UNL1        0.3323
     20 C          19.5576   70.4449   -5.4064 C.ar    1  UNL1        0.0869
     21 C          19.5257   70.0733   -4.1247 C.ar    1  UNL1        0.0795
     22 C          18.2811   69.5076   -3.5674 C.ar    1  UNL1        0.2626
     23 H          16.3603   69.0313   -4.1189 H       1  UNL1        0.1734
     24 O          21.4110   73.9162   -4.5837 O.3     1  UNL1       -0.2703
     25 P          22.7046   73.6803   -3.6438 P.3     1  UNL1        0.2208
     26 O          23.1328   75.1808   -3.2183 O.3     1  UNL1       -0.4371
     27 O          23.8001   72.8833   -4.2923 O.2     1  UNL1       -0.5170
     28 O          22.1142   73.0253   -2.2924 O.3     1  UNL1       -0.2858
     29 O          22.7539   73.5691   -0.0800 O.3     1  UNL1       -0.3226
     30 O          21.4449   69.6453    0.3314 O.3     1  UNL1       -0.3794
     31 O          23.0361   70.4417   -1.9794 O.3     1  UNL1       -0.3775
     32 O          22.2087   71.6921    2.0218 O.3     1  UNL1       -0.3792
     33 C          21.4998   70.9765   -0.1737 C.3     1  UNL1        0.1718
     34 C          22.8632   71.2477   -0.8185 C.3     1  UNL1        0.1968
     35 C          21.2623   71.9543    0.9804 C.3     1  UNL1        0.1723
     36 C          22.9946   72.7247   -1.2105 C.3     1  UNL1        0.2706
     37 C          21.4579   73.3866    0.4880 C.3     1  UNL1        0.1830
     38 H          20.5676   69.5193    0.7316 H       1  UNL1        0.2105
     39 H          23.9060   70.6543   -2.3572 H       1  UNL1        0.2106
     40 H          23.0795   72.0169    1.7369 H       1  UNL1        0.2106
     41 O          22.5897   74.6282    2.1255 O.co2   1  UNL1       -0.5466
     42 O          20.3262   74.8761    2.0146 O.co2   1  UNL1       -0.5466
     43 C          21.3631   74.3693    1.6115 C.2     1  UNL1        0.0799
@<TRIPOS>UNITY_ATOM_ATTR
41 1
charge -1
@<TRIPOS>BOND
     1     1     4    1
     2     1    24    1
     3     1     2    1
     4     1     3    2
     5    25    28    1
     6    25    24    1
     7    25    26    1
     8    25    27    2
     9     6    11    1
    10     6    12    1
    11    29    36    1
    12    29    37    1
    13     7     9    1
    14     7    13    1
    15     8    10    1
    16     8    14    1
    17     4     5    1
    18    28    36    1
    19    30    33    1
    20    30    38    1
    21    31    34    1
    22    31    39    1
    23    32    35    1
    24    32    40    1
    25    41    43   ar
    26    15    19    2
    27    42    43   ar
    28    16    22    2
    29    17    12    1
    30    17    19   ar
    31    17    20   ar
    32    18    19   ar
    33    18    22   ar
    34    18    23    1
    35     9    10    1
    36     9    11    1
    37    10    12    1
    38    11     5    1
    39    33    34    1
    40    33    35    1
    41    34    36    1
    42    35    37    1
    43    37    43    1
    44    20    21   ar
    45    21    22   ar
@<TRIPOS>MOLECULE
UDP-glaA
 43 45 0 0 0
SMALL
GASTEIGER

@<TRIPOS>ATOM
      1 P          21.8133   70.5445   -1.0854 P.3     1  UNL1        0.2189
      2 O          23.2984   70.0371   -0.6927 O.3     1  UNL1       -0.4371
      3 O          20.8393   70.5946    0.0552 O.2     1  UNL1       -0.5170
      4 O          21.3934   69.5972   -2.3271 O.3     1  UNL1       -0.3112
      5 C          20.9321   70.2086   -3.5199 C.3     1  UNL1        0.1811
      6 O          19.1905   71.5878   -4.4358 O.3     1  UNL1       -0.3308
      7 O          17.4237   70.4542   -2.2946 O.3     1  UNL1       -0.3794
      8 O          16.6935   69.0153   -4.4928 O.3     1  UNL1       -0.3779
      9 C          18.4657   69.8195   -3.0357 C.3     1  UNL1        0.1713
     10 C          18.0062   69.5355   -4.4502 C.3     1  UNL1        0.1895
     11 C          19.5726   70.8415   -3.2593 C.3     1  UNL1        0.1764
     12 C          18.1127   70.9056   -5.0978 C.3     1  UNL1        0.2383
     13 H          17.7761   70.6515   -1.4100 H       1  UNL1        0.2105
     14 H          16.6855   68.1976   -3.9661 H       1  UNL1        0.2106
     15 O          16.1790   70.4310   -7.1005 O.2     1  UNL1       -0.2464
     16 O          19.3364   70.6245  -10.4519 O.2     1  UNL1       -0.2670
     17 N          18.4014   70.8276   -6.5014 N.ar    1  UNL1       -0.2551
     18 N          17.7526   70.5271   -8.7680 N.ar    1  UNL1       -0.2743
     19 C          17.3580   70.5843   -7.4248 C.ar    1  UNL1        0.3323
     20 C          19.7071   70.9912   -6.9506 C.ar    1  UNL1        0.0869
     21 C          20.0672   70.9344   -8.2347 C.ar    1  UNL1        0.0795
     22 C          19.0381   70.6832   -9.2630 C.ar    1  UNL1        0.2626
     23 H          17.0191   70.3526   -9.4497 H       1  UNL1        0.1734
     24 O          22.0934   71.9705   -1.7950 O.3     1  UNL1       -0.2703
     25 P          22.0752   73.4729   -1.1993 P.3     1  UNL1        0.2208
     26 O          23.4958   73.5861   -0.4344 O.3     1  UNL1       -0.4371
     27 O          20.8822   73.7805   -0.3402 O.2     1  UNL1       -0.5170
     28 O          22.2299   74.4270   -2.4915 O.3     1  UNL1       -0.2858
     29 O          20.5220   74.8681   -4.0689 O.3     1  UNL1       -0.3226
     30 O          23.9639   75.5361   -6.3020 O.3     1  UNL1       -0.3794
     31 O          23.8140   73.2909   -4.4466 O.3     1  UNL1       -0.3775
     32 O          21.2481   75.9070   -6.6441 O.3     1  UNL1       -0.3792
     33 C          23.1116   75.5052   -5.1605 C.3     1  UNL1        0.1718
     34 C          22.6891   74.0658   -4.8477 C.3     1  UNL1        0.1968
     35 C          21.8758   76.3645   -5.4418 C.3     1  UNL1        0.1723
     36 C          21.6385   74.0386   -3.7306 C.3     1  UNL1        0.2706
     37 C          20.8842   76.2306   -4.2881 C.3     1  UNL1        0.1830
     38 H          24.2037   76.4644   -6.4641 H       1  UNL1        0.2105
     39 H          23.4970   72.3931   -4.2506 H       1  UNL1        0.2106
     40 H          20.7973   75.0664   -6.4566 H       1  UNL1        0.2106
     41 O          18.7333   76.8098   -3.5522 O.co2   1  UNL1       -0.5466
     42 O          19.3738   77.5838   -5.5985 O.co2   1  UNL1       -0.5466
     43 C          19.6060   76.9506   -4.5789 C.2     1  UNL1        0.0799
@<TRIPOS>UNITY_ATOM_ATTR
41 1
charge -1
@<TRIPOS>BOND
     1     1     4    1
     2     1    24    1
     3     1     2    1
     4     1     3    2
     5    25    28    1
     6    25    24    1
     7    25    26    1
     8    25    27    2
     9     6    11    1
    10     6    12    1
    11    29    36    1
    12    29    37    1
    13     7     9    1
    14     7    13    1
    15     8    10    1
    16     8    14    1
    17     4     5    1
    18    28    36    1
    19    30    33    1
    20    30    38    1
    21    31    34    1
    22    31    39    1
    23    32    35    1
    24    32    40    1
    25    41    43   ar
    26    15    19    2
    27    42    43   ar
    28    16    22    2
    29    17    12    1
    30    17    19   ar
    31    17    20   ar
    32    18    19   ar
    33    18    22   ar
    34    18    23    1
    35     9    10    1
    36     9    11    1
    37    10    12    1
    38    11     5    1
    39    33    34    1
    40    33    35    1
    41    34    36    1
    42    35    37    1
    43    37    43    1
    44    20    21   ar
    45    21    22   ar
@<TRIPOS>MOLECULE
UDP-glaA
 43 45 0 0 0
SMALL
GASTEIGER

@<TRIPOS>ATOM
      1 P          21.8887   73.7894   -6.0629 P.3     1  UNL1        0.2189
      2 O          22.2310   75.3674   -6.1635 O.3     1  UNL1       -0.4371
      3 O          22.7553   72.8988   -6.9043 O.2     1  UNL1       -0.5170
      4 O          20.3016   73.7149   -6.3649 O.3     1  UNL1       -0.3112
      5 C          19.4657   73.0469   -5.4352 C.3     1  UNL1        0.1811
      6 O          17.2371   72.7273   -6.2749 O.3     1  UNL1       -0.3308
      7 O          18.4091   70.6113   -8.0471 O.3     1  UNL1       -0.3794
      8 O          18.1588   72.7344   -9.7399 O.3     1  UNL1       -0.3779
      9 C          18.9751   71.8525   -7.6265 C.3     1  UNL1        0.1713
     10 C          18.3228   73.0035   -8.3629 C.3     1  UNL1        0.1895
     11 C          18.5381   72.1050   -6.1895 C.3     1  UNL1        0.1764
     12 C          16.9976   73.1356   -7.6318 C.3     1  UNL1        0.2383
     13 H          18.8288   69.9087   -7.5219 H       1  UNL1        0.2105
     14 H          19.0402   72.5547  -10.1100 H       1  UNL1        0.2106
     15 O          14.7631   74.0161   -6.1461 O.2     1  UNL1       -0.2464
     16 O          15.1862   78.3273   -7.7188 O.2     1  UNL1       -0.2670
     17 N          16.5023   74.4824   -7.6339 N.ar    1  UNL1       -0.2551
     18 N          14.9749   76.1622   -6.9307 N.ar    1  UNL1       -0.2743
     19 C          15.3724   74.8209   -6.8531 C.ar    1  UNL1        0.3323
     20 C          17.1344   75.4523   -8.4041 C.ar    1  UNL1        0.0869
     21 C          16.7436   76.7271   -8.4670 C.ar    1  UNL1        0.0795
     22 C          15.5713   77.1627   -7.6824 C.ar    1  UNL1        0.2626
     23 H          14.1644   76.4282   -6.3780 H       1  UNL1        0.1734
     24 O          21.9698   73.5017   -4.4736 O.3     1  UNL1       -0.2703
     25 P          23.1866   72.9673   -3.5536 P.3     1  UNL1        0.2208
     26 O          24.4675   73.7693   -4.1300 O.3     1  UNL1       -0.4371
     27 O          23.3426   71.4736   -3.5453 O.2     1  UNL1       -0.5170
     28 O          22.9173   73.6175   -2.1014 O.3     1  UNL1       -0.2858
     29 O          21.3957   72.0409   -1.2077 O.3     1  UNL1       -0.3226
     30 O          22.3617   74.3122    2.1371 O.3     1  UNL1       -0.3794
     31 O          21.9241   75.5919   -0.4468 O.3     1  UNL1       -0.3775
     32 O          20.9674   71.9823    1.6299 O.3     1  UNL1       -0.3792
     33 C          22.5424   73.6556    0.8855 C.3     1  UNL1        0.1718
     34 C          21.5903   74.2368   -0.1652 C.3     1  UNL1        0.1968
     35 C          22.2716   72.1596    1.0674 C.3     1  UNL1        0.1723
     36 C          21.6548   73.4250   -1.4649 C.3     1  UNL1        0.2706
     37 C          22.3207   71.4605   -0.2894 C.3     1  UNL1        0.1830
     38 H          22.9811   73.9115    2.7707 H       1  UNL1        0.2105
     39 H          21.3026   75.9130   -1.1217 H       1  UNL1        0.2106
     40 H          20.3063   72.1638    0.9405 H       1  UNL1        0.2106
     41 O          21.2554   69.6195   -1.2791 O.co2   1  UNL1       -0.5466
     42 O          22.1942   69.2961    0.7730 O.co2   1  UNL1       -0.5466
     43 C          21.9343   70.0200   -0.1771 C.2     1  UNL1        0.0799
@<TRIPOS>UNITY_ATOM_ATTR
41 1
charge -1
@<TRIPOS>BOND
     1     1     4    1
     2     1    24    1
     3     1     2    1
     4     1     3    2
     5    25    28    1
     6    25    24    1
     7    25    26    1
     8    25    27    2
     9     6    11    1
    10     6    12    1
    11    29    36    1
    12    29    37    1
    13     7     9    1
    14     7    13    1
    15     8    10    1
    16     8    14    1
    17     4     5    1
    18    28    36    1
    19    30    33    1
    20    30    38    1
    21    31    34    1
    22    31    39    1
    23    32    35    1
    24    32    40    1
    25    41    43   ar
    26    15    19    2
    27    42    43   ar
    28    16    22    2
    29    17    12    1
    30    17    19   ar
    31    17    20   ar
    32    18    19   ar
    33    18    22   ar
    34    18    23    1
    35     9    10    1
    36     9    11    1
    37    10    12    1
    38    11     5    1
    39    33    34    1
    40    33    35    1
    41    34    36    1
    42    35    37    1
    43    37    43    1
    44    20    21   ar
    45    21    22   ar
@<TRIPOS>MOLECULE
UDP-glaA
 43 45 0 0 0
SMALL
GASTEIGER

@<TRIPOS>ATOM
      1 P          19.3173   70.7638   -4.1009 P.3     1  UNL1        0.2189
      2 O          19.3861   69.1581   -3.9155 O.3     1  UNL1       -0.4371
      3 O          18.6077   71.4981   -3.0012 O.2     1  UNL1       -0.5170
      4 O          18.7054   70.9589   -5.5852 O.3     1  UNL1       -0.3112
      5 C          19.5989   71.0164   -6.6841 C.3     1  UNL1        0.1811
      6 O          17.4286   70.8349   -7.6995 O.3     1  UNL1       -0.3308
      7 O          18.8600   70.9179  -10.3330 O.3     1  UNL1       -0.3794
      8 O          17.9292   73.4685  -10.0806 O.3     1  UNL1       -0.3779
      9 C          19.1613   71.6061   -9.1192 C.3     1  UNL1        0.1713
     10 C          18.1782   72.7363   -8.8984 C.3     1  UNL1        0.1895
     11 C          18.8407   70.6735   -7.9585 C.3     1  UNL1        0.1764
     12 C          16.9495   71.9935   -8.4018 C.3     1  UNL1        0.2383
     13 H          19.4893   70.1808  -10.4121 H       1  UNL1        0.2105
     14 H          18.7810   73.8198  -10.3921 H       1  UNL1        0.2106
     15 O          15.0590   73.9208   -9.2309 O.2     1  UNL1       -0.2464
     16 O          13.9557   74.9760   -4.8826 O.2     1  UNL1       -0.2670
     17 N          16.1540   72.7858   -7.5080 N.ar    1  UNL1       -0.2551
     18 N          14.5112   74.4453   -7.0651 N.ar    1  UNL1       -0.2743
     19 C          15.2339   73.7267   -8.0266 C.ar    1  UNL1        0.3323
     20 C          16.2897   72.6267   -6.1334 C.ar    1  UNL1        0.0869
     21 C          15.5929   73.3191   -5.2295 C.ar    1  UNL1        0.0795
     22 C          14.6117   74.3224   -5.6879 C.ar    1  UNL1        0.2626
     23 H          13.8443   75.1279   -7.4150 H       1  UNL1        0.1734
     24 O          20.8700   71.1734   -4.2916 O.3     1  UNL1       -0.2703
     25 P          21.6311   72.5808   -4.0626 P.3     1  UNL1        0.2208
     26 O          20.4539   73.6740   -4.2497 O.3     1  UNL1       -0.4371
     27 O          22.8199   72.7907   -4.9562 O.2     1  UNL1       -0.5170
     28 O          21.9694   72.6109   -2.4850 O.3     1  UNL1       -0.2858
     29 O          21.2840   71.0852   -0.8111 O.3     1  UNL1       -0.3226
     30 O          21.6376   74.6291    1.3325 O.3     1  UNL1       -0.3794
     31 O          20.4671   74.6238   -1.3388 O.3     1  UNL1       -0.3775
     32 O          21.2138   71.9637    1.9205 O.3     1  UNL1       -0.3792
     33 C          21.9263   73.6470    0.3413 C.3     1  UNL1        0.1718
     34 C          20.7182   73.4459   -0.5797 C.3     1  UNL1        0.1968
     35 C          22.2793   72.3297    1.0375 C.3     1  UNL1        0.1723
     36 C          20.9558   72.2732   -1.5392 C.3     1  UNL1        0.2706
     37 C          22.4531   71.2283   -0.0059 C.3     1  UNL1        0.1830
     38 H          22.4271   74.7215    1.8926 H       1  UNL1        0.2105
     39 H          19.7023   74.4462   -1.9118 H       1  UNL1        0.2106
     40 H          20.4656   71.6466    1.3869 H       1  UNL1        0.2106
     41 O          23.3832   70.0270    1.7817 O.co2   1  UNL1       -0.5466
     42 O          22.2639   68.8298    0.1971 O.co2   1  UNL1       -0.5466
     43 C          22.6713   69.8954    0.6365 C.2     1  UNL1        0.0799
@<TRIPOS>UNITY_ATOM_ATTR
41 1
charge -1
@<TRIPOS>BOND
     1     1     4    1
     2     1    24    1
     3     1     2    1
     4     1     3    2
     5    25    28    1
     6    25    24    1
     7    25    26    1
     8    25    27    2
     9     6    11    1
    10     6    12    1
    11    29    36    1
    12    29    37    1
    13     7     9    1
    14     7    13    1
    15     8    10    1
    16     8    14    1
    17     4     5    1
    18    28    36    1
    19    30    33    1
    20    30    38    1
    21    31    34    1
    22    31    39    1
    23    32    35    1
    24    32    40    1
    25    41    43   ar
    26    15    19    2
    27    42    43   ar
    28    16    22    2
    29    17    12    1
    30    17    19   ar
    31    17    20   ar
    32    18    19   ar
    33    18    22   ar
    34    18    23    1
    35     9    10    1
    36     9    11    1
    37    10    12    1
    38    11     5    1
    39    33    34    1
    40    33    35    1
    41    34    36    1
    42    35    37    1
    43    37    43    1
    44    20    21   ar
    45    21    22   ar
@<TRIPOS>MOLECULE
UDP-glaA
 43 45 0 0 0
SMALL
GASTEIGER

@<TRIPOS>ATOM
      1 P          21.8549   73.6539   -5.3105 P.3     1  UNL1        0.2189
      2 O          20.6673   74.1477   -6.2918 O.3     1  UNL1       -0.4371
      3 O          22.7362   72.5783   -5.8749 O.2     1  UNL1       -0.5170
      4 O          21.0939   73.2874   -3.9313 O.3     1  UNL1       -0.3112
      5 C          20.6503   71.9554   -3.7357 C.3     1  UNL1        0.1811
      6 O          18.5110   72.2395   -4.7926 O.3     1  UNL1       -0.3308
      7 O          17.3545   70.8459   -2.4027 O.3     1  UNL1       -0.3794
      8 O          17.4096   68.8665   -4.2773 O.3     1  UNL1       -0.3779
      9 C          18.5941   70.6138   -3.0713 C.3     1  UNL1        0.1713
     10 C          18.3555   69.9096   -4.3903 C.3     1  UNL1        0.1895
     11 C          19.1431   71.9605   -3.5238 C.3     1  UNL1        0.1764
     12 C          17.8683   71.0468   -5.2719 C.3     1  UNL1        0.2383
     13 H          17.5532   71.3323   -1.5844 H       1  UNL1        0.2105
     14 H          17.7455   68.2371   -3.6160 H       1  UNL1        0.2106
     15 O          15.9910   70.5762   -7.3285 O.2     1  UNL1       -0.2464
     16 O          19.2924   70.3231  -10.5341 O.2     1  UNL1       -0.2670
     17 N          18.2093   70.8550   -6.6525 N.ar    1  UNL1       -0.2551
     18 N          17.6362   70.4499   -8.9233 N.ar    1  UNL1       -0.2743
     19 C          17.1906   70.6243   -7.6064 C.ar    1  UNL1        0.3323
     20 C          19.5412   70.8962   -7.0497 C.ar    1  UNL1        0.0869
     21 C          19.9499   70.7285   -8.3093 C.ar    1  UNL1        0.0795
     22 C          18.9494   70.4819   -9.3666 C.ar    1  UNL1        0.2626
     23 H          16.9213   70.2821   -9.6260 H       1  UNL1        0.1734
     24 O          22.6212   75.0310   -4.9475 O.3     1  UNL1       -0.2703
     25 P          23.3884   76.0974   -5.8891 P.3     1  UNL1        0.2208
     26 O          24.8653   76.1755   -5.2341 O.3     1  UNL1       -0.4371
     27 O          22.6934   77.4232   -6.0113 O.2     1  UNL1       -0.5170
     28 O          23.6033   75.3257   -7.2899 O.3     1  UNL1       -0.2858
     29 O          23.3193   76.8735   -9.0572 O.3     1  UNL1       -0.3226
     30 O          24.0360   73.3303  -11.1094 O.3     1  UNL1       -0.3794
     31 O          22.3306   73.3533   -8.7435 O.3     1  UNL1       -0.3775
     32 O          23.8052   76.0073  -11.7501 O.3     1  UNL1       -0.3792
     33 C          24.1319   74.3016  -10.0712 C.3     1  UNL1        0.1718
     34 C          22.7620   74.5278   -9.4228 C.3     1  UNL1        0.1968
     35 C          24.6528   75.6127  -10.6663 C.3     1  UNL1        0.1723
     36 C          22.8189   75.6909   -8.4246 C.3     1  UNL1        0.2706
     37 C          24.6280   76.7057   -9.6001 C.3     1  UNL1        0.1830
     38 H          24.9233   73.2213  -11.4920 H       1  UNL1        0.2105
     39 H          21.4666   73.5470   -8.3425 H       1  UNL1        0.2106
     40 H          22.9687   76.3400  -11.3829 H       1  UNL1        0.2106
     41 O          25.9796   77.8967  -11.1029 O.co2   1  UNL1       -0.5466
     42 O          24.5083   79.1044   -9.8485 O.co2   1  UNL1       -0.5466
     43 C          25.0062   78.0355  -10.1708 C.2     1  UNL1        0.0799
@<TRIPOS>UNITY_ATOM_ATTR
41 1
charge -1
@<TRIPOS>BOND
     1     1     4    1
     2     1    24    1
     3     1     2    1
     4     1     3    2
     5    25    28    1
     6    25    24    1
     7    25    26    1
     8    25    27    2
     9     6    11    1
    10     6    12    1
    11    29    36    1
    12    29    37    1
    13     7     9    1
    14     7    13    1
    15     8    10    1
    16     8    14    1
    17     4     5    1
    18    28    36    1
    19    30    33    1
    20    30    38    1
    21    31    34    1
    22    31    39    1
    23    32    35    1
    24    32    40    1
    25    41    43   ar
    26    15    19    2
    27    42    43   ar
    28    16    22    2
    29    17    12    1
    30    17    19   ar
    31    17    20   ar
    32    18    19   ar
    33    18    22   ar
    34    18    23    1
    35     9    10    1
    36     9    11    1
    37    10    12    1
    38    11     5    1
    39    33    34    1
    40    33    35    1
    41    34    36    1
    42    35    37    1
    43    37    43    1
    44    20    21   ar
    45    21    22   ar
@<TRIPOS>MOLECULE
UDP-glaA
 43 45 0 0 0
SMALL
GASTEIGER

@<TRIPOS>ATOM
      1 P          23.2204   73.6582   -3.8305 P.3     1  UNL1        0.2189
      2 O          22.9653   72.4664   -4.8943 O.3     1  UNL1       -0.4371
      3 O          24.6614   74.0196   -3.6183 O.2     1  UNL1       -0.5170
      4 O          22.4134   73.1831   -2.5120 O.3     1  UNL1       -0.3112
      5 C          21.0050   73.3411   -2.4862 C.3     1  UNL1        0.1811
      6 O          19.1588   71.8032   -2.4597 O.3     1  UNL1       -0.3308
      7 O          20.8817   70.0556   -0.7367 O.3     1  UNL1       -0.3794
      8 O          21.1144   68.8881   -3.1900 O.3     1  UNL1       -0.3779
      9 C          21.2545   70.8970   -1.8279 C.3     1  UNL1        0.1713
     10 C          20.8335   70.2717   -3.1410 C.3     1  UNL1        0.1895
     11 C          20.3846   72.1461   -1.7764 C.3     1  UNL1        0.1764
     12 C          19.3434   70.5663   -3.1677 C.3     1  UNL1        0.2383
     13 H          21.1355   70.5138    0.0825 H       1  UNL1        0.2105
     14 H          22.0718   68.7789   -3.0572 H       1  UNL1        0.2106
     15 O          16.6932   69.9735   -3.9426 O.2     1  UNL1       -0.2464
     16 O          17.5132   71.1618   -8.3192 O.2     1  UNL1       -0.2670
     17 N          18.8372   70.7120   -4.5025 N.ar    1  UNL1       -0.2551
     18 N          17.1034   70.5651   -6.1216 N.ar    1  UNL1       -0.2743
     19 C          17.4905   70.3860   -4.7870 C.ar    1  UNL1        0.3323
     20 C          19.6722   71.1735   -5.5140 C.ar    1  UNL1        0.0869
     21 C          19.2880   71.3394   -6.7815 C.ar    1  UNL1        0.0795
     22 C          17.8977   71.0208   -7.1624 C.ar    1  UNL1        0.2626
     23 H          16.1396   70.3363   -6.3494 H       1  UNL1        0.1734
     24 O          22.3024   74.8593   -4.4049 O.3     1  UNL1       -0.2703
     25 P          22.1537   75.4588   -5.8986 P.3     1  UNL1        0.2208
     26 O          23.6092   75.1925   -6.5519 O.3     1  UNL1       -0.4371
     27 O          21.7059   76.8917   -5.9454 O.2     1  UNL1       -0.5170
     28 O          21.1708   74.4281   -6.6570 O.3     1  UNL1       -0.2858
     29 O          20.6927   75.5943   -8.6597 O.3     1  UNL1       -0.3226
     30 O          24.7904   74.9696   -8.9725 O.3     1  UNL1       -0.3794
     31 O          23.0450   72.8679   -7.9516 O.3     1  UNL1       -0.3775
     32 O          22.8697   76.4018  -10.3471 O.3     1  UNL1       -0.3792
     33 C          23.5324   75.2153   -8.3501 C.3     1  UNL1        0.1718
     34 C          22.5750   74.0451   -8.5998 C.3     1  UNL1        0.1968
     35 C          22.9412   76.5070   -8.9214 C.3     1  UNL1        0.1723
     36 C          21.1689   74.3738   -8.0829 C.3     1  UNL1        0.2706
     37 C          21.5310   76.7125   -8.3725 C.3     1  UNL1        0.1830
     38 H          25.3621   75.7349   -8.7908 H       1  UNL1        0.2105
     39 H          22.4039   72.1592   -8.1295 H       1  UNL1        0.2106
     40 H          22.1424   75.7987  -10.5763 H       1  UNL1        0.2106
     41 O          19.5236   77.7128   -9.0609 O.co2   1  UNL1       -0.5466
     42 O          21.4438   78.8908   -9.4105 O.co2   1  UNL1       -0.5466
     43 C          20.8651   77.8939   -9.0034 C.2     1  UNL1        0.0799
@<TRIPOS>UNITY_ATOM_ATTR
41 1
charge -1
@<TRIPOS>BOND
     1     1     4    1
     2     1    24    1
     3     1     2    1
     4     1     3    2
     5    25    28    1
     6    25    24    1
     7    25    26    1
     8    25    27    2
     9     6    11    1
    10     6    12    1
    11    29    36    1
    12    29    37    1
    13     7     9    1
    14     7    13    1
    15     8    10    1
    16     8    14    1
    17     4     5    1
    18    28    36    1
    19    30    33    1
    20    30    38    1
    21    31    34    1
    22    31    39    1
    23    32    35    1
    24    32    40    1
    25    41    43   ar
    26    15    19    2
    27    42    43   ar
    28    16    22    2
    29    17    12    1
    30    17    19   ar
    31    17    20   ar
    32    18    19   ar
    33    18    22   ar
    34    18    23    1
    35     9    10    1
    36     9    11    1
    37    10    12    1
    38    11     5    1
    39    33    34    1
    40    33    35    1
    41    34    36    1
    42    35    37    1
    43    37    43    1
    44    20    21   ar
    45    21    22   ar
