


 87 92  0  0  0  0  0  0  0  0999 V2000
  -10.3970   -8.2800   19.5100 O   0  0  0  0  0  0  0  0  0  0  0  0
   -6.9730   -8.9230   18.5740 C   0  0  0  0  0  0  0  0  0  0  0  0
   -7.1230   -9.7760   19.7680 C   0  0  0  0  0  0  0  0  0  0  0  0
   -5.8040   -9.9700   20.2750 O   0  0  0  0  0  0  0  0  0  0  0  0
   -7.9200  -10.9100   19.5470 C   0  0  0  0  0  0  0  0  0  0  0  0
   -9.0910  -10.1100   19.9100 O   0  0  0  0  0  0  0  0  0  0  0  0
   -9.3560   -9.0620   18.9760 C   0  0  0  0  0  0  0  0  0  0  0  0
   -8.1880   -8.1130   18.8310 C   0  0  0  0  0  0  0  0  0  0  0  0
   -8.4130   -7.2030   17.8010 O   0  0  0  0  0  0  0  0  0  0  0  0
   -5.2542  -10.3886   19.5942 H   0  0  0  0  0  0  0  0  0  0  0  0
   -8.5328   -7.6825   16.9664 H   0  0  0  0  0  0  0  0  0  0  0  0
   -7.7870  -11.9660   20.5760 C   0  0  0  0  0  0  0  0  0  0  0  0
   -8.8230  -12.9040   20.4290 O   0  0  0  0  0  0  0  0  0  0  0  0
   -9.6788  -12.4598   20.5350 H   0  0  0  0  0  0  0  0  0  0  0  0
   -5.9800   -7.9400   18.6380 O   0  0  0  0  0  0  0  0  0  0  0  0
   -3.2440   -6.6990   17.0600 C   0  0  0  0  0  0  0  0  0  0  0  0
   -2.5310   -8.0410   17.2780 C   0  0  0  0  0  0  0  0  0  0  0  0
   -1.4180   -8.1250   16.4320 O   0  0  0  0  0  0  0  0  0  0  0  0
   -3.4190   -9.2130   16.8690 C   0  0  0  0  0  0  0  0  0  0  0  0
   -4.5090   -9.2160   17.7120 O   0  0  0  0  0  0  0  0  0  0  0  0
   -5.2250   -7.9360   17.6750 C   0  0  0  0  0  0  0  0  0  0  0  0
   -4.3930   -6.6690   17.9350 C   0  0  0  0  0  0  0  0  0  0  0  0
   -5.2070   -5.5650   17.7690 O   0  0  0  0  0  0  0  0  0  0  0  0
   -1.7097   -8.0770   15.5082 H   0  0  0  0  0  0  0  0  0  0  0  0
   -5.5735   -5.5656   16.8709 H   0  0  0  0  0  0  0  0  0  0  0  0
   -2.7500  -10.5310   16.9330 C   0  0  0  0  0  0  0  0  0  0  0  0
   -3.6620  -11.5690   16.8240 O   0  0  0  0  0  0  0  0  0  0  0  0
   -4.1174  -11.5109   15.9695 H   0  0  0  0  0  0  0  0  0  0  0  0
   -2.5310   -5.5690   17.4900 O   0  0  0  0  0  0  0  0  0  0  0  0
    0.0220   -5.4600   15.4380 C   0  0  0  0  0  0  0  0  0  0  0  0
   -0.5750   -5.7100   16.5400 O   0  0  0  0  0  0  0  0  0  0  0  0
   -1.9310   -5.0450   16.4400 C   0  0  0  0  0  0  0  0  0  0  0  0
   -1.9210   -3.5470   16.4430 C   0  0  0  0  0  0  0  0  0  0  0  0
   -3.2070   -3.0590   16.4770 O   0  0  0  0  0  0  0  0  0  0  0  0
   -1.1530   -3.1890   15.1800 C   0  0  0  0  0  0  0  0  0  0  0  0
   -0.9350   -1.8180   15.1370 O   0  0  0  0  0  0  0  0  0  0  0  0
    0.2290   -3.9060   15.2130 C   0  0  0  0  0  0  0  0  0  0  0  0
    0.9090   -3.7250   14.0340 O   0  0  0  0  0  0  0  0  0  0  0  0
   -3.7058   -3.4091   15.7223 H   0  0  0  0  0  0  0  0  0  0  0  0
   -0.4241   -1.5473   15.9158 H   0  0  0  0  0  0  0  0  0  0  0  0
    0.3973   -4.1069   13.3037 H   0  0  0  0  0  0  0  0  0  0  0  0
    1.9200   -6.0250   16.7990 O   0  0  0  0  0  0  0  0  0  0  0  0
    1.3460   -6.2080   15.5360 C   0  0  0  0  0  0  0  0  0  0  0  0
    2.7607   -6.5067   16.8450 H   0  0  0  0  0  0  0  0  0  0  0  0
  -11.6150   -8.8160   19.3500 C   0  0  0  0  0  0  0  0  0  0  0  0
  -12.2640   -9.0100   20.6900 C   0  0  0  0  0  0  0  0  0  0  0  0
  -11.5770   -9.9900   21.3660 O   0  0  0  0  0  0  0  0  0  0  0  0
  -13.7220   -9.3370   20.3840 C   0  0  0  0  0  0  0  0  0  0  0  0
  -14.3120   -8.2320   19.6800 O   0  0  0  0  0  0  0  0  0  0  0  0
  -13.7540   -8.0860   18.3390 C   0  0  0  0  0  0  0  0  0  0  0  0
  -12.2940   -7.7300   18.4830 C   0  0  0  0  0  0  0  0  0  0  0  0
  -11.6000   -7.6360   17.3090 O   0  0  0  0  0  0  0  0  0  0  0  0
  -11.5619  -10.8004   20.8332 H   0  0  0  0  0  0  0  0  0  0  0  0
  -11.5920   -8.4999   16.8680 H   0  0  0  0  0  0  0  0  0  0  0  0
  -14.4460   -9.4080   21.7170 C   0  0  0  0  0  0  0  0  0  0  0  0
  -15.7650   -9.3370   21.5450 O   0  0  0  0  0  0  0  0  0  0  0  0
  -15.9909   -8.4941   21.1214 H   0  0  0  0  0  0  0  0  0  0  0  0
  -14.3560   -6.9750   17.6600 O   0  0  0  0  0  0  0  0  0  0  0  0
  -15.6350   -7.3970   17.1040 C   0  0  0  0  0  0  0  0  0  0  0  0
  -16.7410   -6.5370   17.7040 C   0  0  0  0  0  0  0  0  0  0  0  0
  -16.4700   -6.4260   19.0410 O   0  0  0  0  0  0  0  0  0  0  0  0
  -18.0530   -7.2120   17.2570 C   0  0  0  0  0  0  0  0  0  0  0  0
  -18.0890   -6.6700   15.9140 O   0  0  0  0  0  0  0  0  0  0  0  0
  -17.0270   -7.1630   15.0650 C   0  0  0  0  0  0  0  0  0  0  0  0
  -15.6750   -6.8050   15.6830 C   0  0  0  0  0  0  0  0  0  0  0  0
  -14.6410   -7.2760   14.9510 O   0  0  0  0  0  0  0  0  0  0  0  0
  -16.3789   -7.3112   19.4270 H   0  0  0  0  0  0  0  0  0  0  0  0
  -14.6942   -8.2433   14.9013 H   0  0  0  0  0  0  0  0  0  0  0  0
  -19.2670   -6.7160   17.9900 C   0  0  0  0  0  0  0  0  0  0  0  0
  -20.4240   -7.3410   17.4660 O   0  0  0  0  0  0  0  0  0  0  0  0
  -20.5072   -7.1288   16.5232 H   0  0  0  0  0  0  0  0  0  0  0  0
  -17.1510   -6.4630   13.8610 O   0  0  0  0  0  0  0  0  0  0  0  0
  -17.9800   -7.1150   12.9310 C   0  0  0  0  0  0  0  0  0  0  0  0
  -17.1790   -6.9570   11.6270 C   0  0  0  0  0  0  0  0  0  0  0  0
  -15.9430   -7.5020   11.8170 O   0  0  0  0  0  0  0  0  0  0  0  0
  -18.0310   -7.5800   10.5170 C   0  0  0  0  0  0  0  0  0  0  0  0
  -17.3640   -7.4240    9.3410 O   0  0  0  0  0  0  0  0  0  0  0  0
  -19.3170   -6.8660   10.4250 O   0  0  0  0  0  0  0  0  0  0  0  0
  -20.0850   -7.1000   11.6810 C   0  0  0  0  0  0  0  0  0  0  0  0
  -19.3620   -6.4420   12.8310 C   0  0  0  0  0  0  0  0  0  0  0  0
  -20.0420   -6.6410   14.0560 O   0  0  0  0  0  0  0  0  0  0  0  0
  -16.0364   -8.4291   12.0864 H   0  0  0  0  0  0  0  0  0  0  0  0
  -17.2149   -6.4797    9.1766 H   0  0  0  0  0  0  0  0  0  0  0  0
  -20.1126   -7.5916   14.2359 H   0  0  0  0  0  0  0  0  0  0  0  0
  -21.4360   -6.4360   11.4680 C   0  0  0  0  0  0  0  0  0  0  0  0
  -22.0930   -6.9890   10.4250 O   0  0  0  0  0  0  0  0  0  0  0  0
  -22.2472   -7.9301   10.6023 H   0  0  0  0  0  0  0  0  0  0  0  0
 77 76  1  0
 78 76  1  0
 78 79  1  0
 86 85  1  0
 76 74  1  0
 85 79  1  0
 74 75  1  0
 74 73  1  0
 79 80  1  0
 80 73  1  0
 80 81  1  0
 73 72  1  0
 72 64  1  0
 38 37  1  0
 66 65  1  0
 64 65  1  0
 64 63  1  0
 36 35  1  0
 35 37  1  0
 35 33  1  0
 37 30  1  0
 30 43  1  0
 30 31  1  0
 43 42  1  0
 65 59  1  0
 63 62  1  0
 18 17  1  0
 32 33  1  0
 32 31  1  0
 32 29  1  0
 33 34  1  0
 27 26  1  0
 19 26  1  0
 19 17  1  0
 19 20  1  0
 16 17  1  0
 16 29  1  0
 16 22  1  0
 59 58  1  0
 59 60  1  0
 62 60  1  0
 62 69  1  0
 52 51  1  0
 70 69  1  0
 58 50  1  0
 21 20  1  0
 21 22  1  0
 21 15  1  0
 60 61  1  0
 23 22  1  0
  9  8  1  0
 50 51  1  0
 50 49  1  0
 51 45  1  0
  2 15  1  0
  2  8  1  0
  2  3  1  0
  8  7  1  0
  7  1  1  0
  7  6  1  0
 45  1  1  0
 45 46  1  0
  5  3  1  0
  5  6  1  0
  5 12  1  0
 49 48  1  0
  3  4  1  0
 48 46  1  0
 48 55  1  0
 13 12  1  0
 46 47  1  0
 56 55  1  0
 42 44  1  0
 18 24  1  0
 27 28  1  0
  4 10  1  0
 13 14  1  0
 47 53  1  0
 56 57  1  0
 61 67  1  0
 70 71  1  0
 75 82  1  0
 77 83  1  0
 86 87  1  0
 81 84  1  0
 66 68  1  0
 52 54  1  0
  9 11  1  0
 23 25  1  0
 34 39  1  0
 36 40  1  0
 38 41  1  0
M  END
> <minimizedAffinity>
-2.70319

> <CNNscore>
0.8861318827

> <CNNaffinity>
4.8947429657

> <CNN_VS>
4.3373875618

> <CNNaffinity_variance>
1.1219886541

$$$$
