


 87 92  0  0  0  0  0  0  0  0999 V2000
  -12.6340   16.7160    2.9550 O   0  0  0  0  0  0  0  0  0  0  0  0
   -9.4580   17.3120    1.3730 C   0  0  0  0  0  0  0  0  0  0  0  0
   -9.4970   18.7150    1.7940 C   0  0  0  0  0  0  0  0  0  0  0  0
   -8.2190   19.2460    1.4570 O   0  0  0  0  0  0  0  0  0  0  0  0
   -9.7750   18.8250    3.2430 C   0  0  0  0  0  0  0  0  0  0  0  0
  -11.1170   18.3710    3.2970 O   0  0  0  0  0  0  0  0  0  0  0  0
  -11.2670   17.0220    2.9270 C   0  0  0  0  0  0  0  0  0  0  0  0
  -10.7950   16.7360    1.5700 C   0  0  0  0  0  0  0  0  0  0  0  0
  -10.8060   15.3760    1.2930 O   0  0  0  0  0  0  0  0  0  0  0  0
   -7.5279   18.7367    1.9086 H   0  0  0  0  0  0  0  0  0  0  0  0
  -10.2032   14.9177    1.8992 H   0  0  0  0  0  0  0  0  0  0  0  0
   -9.7400   20.2830    3.6450 C   0  0  0  0  0  0  0  0  0  0  0  0
  -10.3260   20.4770    4.8780 O   0  0  0  0  0  0  0  0  0  0  0  0
  -11.2552   20.2010    4.8414 H   0  0  0  0  0  0  0  0  0  0  0  0
   -9.3090   17.0930   -0.0290 O   0  0  0  0  0  0  0  0  0  0  0  0
   -6.6840   16.4320   -2.0710 C   0  0  0  0  0  0  0  0  0  0  0  0
   -6.1260   17.8830   -2.1090 C   0  0  0  0  0  0  0  0  0  0  0  0
   -4.7240   17.7790   -2.0620 O   0  0  0  0  0  0  0  0  0  0  0  0
   -6.5090   18.6470   -0.8660 C   0  0  0  0  0  0  0  0  0  0  0  0
   -7.9390   18.6540   -0.8140 O   0  0  0  0  0  0  0  0  0  0  0  0
   -8.2140   17.2570   -0.5790 C   0  0  0  0  0  0  0  0  0  0  0  0
   -8.2100   16.5780   -1.9270 C   0  0  0  0  0  0  0  0  0  0  0  0
   -8.8490   15.3660   -1.8320 O   0  0  0  0  0  0  0  0  0  0  0  0
   -4.4608   17.3220   -1.2479 H   0  0  0  0  0  0  0  0  0  0  0  0
   -8.4591   14.8508   -1.1085 H   0  0  0  0  0  0  0  0  0  0  0  0
   -5.9900   20.0170   -0.9330 C   0  0  0  0  0  0  0  0  0  0  0  0
   -6.6060   20.8380   -0.0330 O   0  0  0  0  0  0  0  0  0  0  0  0
   -7.5552   20.8781   -0.2288 H   0  0  0  0  0  0  0  0  0  0  0  0
   -6.4750   15.8800   -3.3100 O   0  0  0  0  0  0  0  0  0  0  0  0
   -3.2150   14.8060   -3.0070 C   0  0  0  0  0  0  0  0  0  0  0  0
   -4.1890   15.6900   -3.1750 O   0  0  0  0  0  0  0  0  0  0  0  0
   -5.5110   14.9530   -3.1880 C   0  0  0  0  0  0  0  0  0  0  0  0
   -5.6770   14.0180   -4.3400 C   0  0  0  0  0  0  0  0  0  0  0  0
   -6.9560   13.4890   -4.3180 O   0  0  0  0  0  0  0  0  0  0  0  0
   -4.5680   13.0490   -4.2050 C   0  0  0  0  0  0  0  0  0  0  0  0
   -4.5970   12.1800   -5.3130 O   0  0  0  0  0  0  0  0  0  0  0  0
   -3.2210   13.8030   -4.1730 C   0  0  0  0  0  0  0  0  0  0  0  0
   -2.1450   12.9640   -4.0080 O   0  0  0  0  0  0  0  0  0  0  0  0
   -7.1107   13.0523   -3.4658 H   0  0  0  0  0  0  0  0  0  0  0  0
   -4.4986   12.6940   -6.1297 H   0  0  0  0  0  0  0  0  0  0  0  0
   -2.2170   12.5099   -3.1539 H   0  0  0  0  0  0  0  0  0  0  0  0
   -1.9760   16.7910   -2.5230 O   0  0  0  0  0  0  0  0  0  0  0  0
   -1.8790   15.5300   -2.9830 C   0  0  0  0  0  0  0  0  0  0  0  0
   -1.0991   17.2056   -2.5286 H   0  0  0  0  0  0  0  0  0  0  0  0
  -13.1760   16.5820    4.1660 C   0  0  0  0  0  0  0  0  0  0  0  0
  -14.1910   17.6410    4.4450 C   0  0  0  0  0  0  0  0  0  0  0  0
  -13.5650   18.8600    4.5350 O   0  0  0  0  0  0  0  0  0  0  0  0
  -14.9410   17.1920    5.7010 C   0  0  0  0  0  0  0  0  0  0  0  0
  -15.5760   15.9370    5.4580 O   0  0  0  0  0  0  0  0  0  0  0  0
  -14.6030   14.9030    5.3040 C   0  0  0  0  0  0  0  0  0  0  0  0
  -13.7470   15.1510    4.0920 C   0  0  0  0  0  0  0  0  0  0  0  0
  -12.7110   14.2970    3.9250 O   0  0  0  0  0  0  0  0  0  0  0  0
  -12.8888   18.8257    5.2296 H   0  0  0  0  0  0  0  0  0  0  0  0
  -12.0889   14.3952    4.6627 H   0  0  0  0  0  0  0  0  0  0  0  0
  -16.0460   18.1580    6.0570 C   0  0  0  0  0  0  0  0  0  0  0  0
  -17.1830   17.9540    5.2520 O   0  0  0  0  0  0  0  0  0  0  0  0
  -17.5190   17.0544    5.3891 H   0  0  0  0  0  0  0  0  0  0  0  0
  -15.2150   13.6270    5.0780 O   0  0  0  0  0  0  0  0  0  0  0  0
  -15.8840   13.1920    6.2800 C   0  0  0  0  0  0  0  0  0  0  0  0
  -17.3100   12.8090    5.9090 C   0  0  0  0  0  0  0  0  0  0  0  0
  -17.7730   13.7850    5.0460 O   0  0  0  0  0  0  0  0  0  0  0  0
  -18.0630   12.6340    7.2270 C   0  0  0  0  0  0  0  0  0  0  0  0
  -17.6200   11.2630    7.4230 O   0  0  0  0  0  0  0  0  0  0  0  0
  -16.1960   11.1810    7.6790 C   0  0  0  0  0  0  0  0  0  0  0  0
  -15.4040   11.7450    6.5080 C   0  0  0  0  0  0  0  0  0  0  0  0
  -14.0720   11.7310    6.7230 O   0  0  0  0  0  0  0  0  0  0  0  0
  -17.6918   14.6546    5.4679 H   0  0  0  0  0  0  0  0  0  0  0  0
  -13.8637   12.2770    7.4972 H   0  0  0  0  0  0  0  0  0  0  0  0
  -19.5610   12.5900    7.1200 C   0  0  0  0  0  0  0  0  0  0  0  0
  -20.1390   12.2590    8.3580 O   0  0  0  0  0  0  0  0  0  0  0  0
  -19.8269   11.3840    8.6369 H   0  0  0  0  0  0  0  0  0  0  0  0
  -15.9160    9.8150    7.7580 O   0  0  0  0  0  0  0  0  0  0  0  0
  -16.1750    9.3100    9.0390 C   0  0  0  0  0  0  0  0  0  0  0  0
  -14.8420    8.7220    9.5190 C   0  0  0  0  0  0  0  0  0  0  0  0
  -13.8870    9.7240    9.4960 O   0  0  0  0  0  0  0  0  0  0  0  0
  -15.1010    8.0940   10.8800 C   0  0  0  0  0  0  0  0  0  0  0  0
  -13.9460    7.5690   11.3350 O   0  0  0  0  0  0  0  0  0  0  0  0
  -16.1020    6.9970   10.6900 O   0  0  0  0  0  0  0  0  0  0  0  0
  -17.3930    7.5910   10.2790 C   0  0  0  0  0  0  0  0  0  0  0  0
  -17.2680    8.2190    8.9350 C   0  0  0  0  0  0  0  0  0  0  0  0
  -18.4730    8.8310    8.5010 O   0  0  0  0  0  0  0  0  0  0  0  0
  -14.1800   10.4628   10.0521 H   0  0  0  0  0  0  0  0  0  0  0  0
  -13.6167    6.9134   10.7005 H   0  0  0  0  0  0  0  0  0  0  0  0
  -18.7229    9.5309    9.1244 H   0  0  0  0  0  0  0  0  0  0  0  0
  -18.3840    6.4170   10.1810 C   0  0  0  0  0  0  0  0  0  0  0  0
  -18.6360    5.9210   11.3780 O   0  0  0  0  0  0  0  0  0  0  0  0
  -17.8121    5.5957   11.7732 H   0  0  0  0  0  0  0  0  0  0  0  0
 36 35  1  0
 33 34  1  0
 33 35  1  0
 33 32  1  0
 35 37  1  0
 37 38  1  0
 37 30  1  0
 29 32  1  0
 29 16  1  0
 32 31  1  0
 31 30  1  0
 30 43  1  0
 43 42  1  0
 17 16  1  0
 17 18  1  0
 17 19  1  0
 16 22  1  0
 22 23  1  0
 22 21  1  0
 26 19  1  0
 26 27  1  0
 19 20  1  0
 20 21  1  0
 21 15  1  0
 15  2  1  0
  9  8  1  0
  2  8  1  0
  2  3  1  0
  4  3  1  0
  8  7  1  0
  3  5  1  0
  7  1  1  0
  7  6  1  0
  1 45  1  0
  5  6  1  0
  5 12  1  0
 12 13  1  0
 52 51  1  0
 51 45  1  0
 51 50  1  0
 45 46  1  0
 46 47  1  0
 46 48  1  0
 61 60  1  0
 58 50  1  0
 58 59  1  0
 56 55  1  0
 50 49  1  0
 49 48  1  0
 48 55  1  0
 60 59  1  0
 60 62  1  0
 59 65  1  0
 65 66  1  0
 65 64  1  0
 69 62  1  0
 69 70  1  0
 62 63  1  0
 63 64  1  0
 64 72  1  0
 72 73  1  0
 81 80  1  0
 80 73  1  0
 80 79  1  0
 73 74  1  0
 75 74  1  0
 74 76  1  0
 85 79  1  0
 85 86  1  0
 79 78  1  0
 78 76  1  0
 76 77  1  0
 42 44  1  0
 18 24  1  0
 27 28  1  0
  4 10  1  0
 13 14  1  0
 47 53  1  0
 56 57  1  0
 61 67  1  0
 70 71  1  0
 75 82  1  0
 77 83  1  0
 86 87  1  0
 81 84  1  0
 66 68  1  0
 52 54  1  0
  9 11  1  0
 23 25  1  0
 34 39  1  0
 36 40  1  0
 38 41  1  0
M  END
> <minimizedAffinity>
-2.81988

> <CNNscore>
0.8421631455

> <CNNaffinity>
5.2237524986

> <CNN_VS>
4.3992519379

> <CNNaffinity_variance>
1.3522928953

$$$$
