


 87 92  0  0  0  0  0  0  0  0999 V2000
  -18.1240   -6.2580  -11.0390 O   0  0  0  0  0  0  0  0  0  0  0  0
  -15.4250   -8.2770  -12.3280 C   0  0  0  0  0  0  0  0  0  0  0  0
  -16.4170   -8.3320  -13.4070 C   0  0  0  0  0  0  0  0  0  0  0  0
  -16.1170   -9.5010  -14.1460 O   0  0  0  0  0  0  0  0  0  0  0  0
  -16.4930   -7.0850  -14.1040 C   0  0  0  0  0  0  0  0  0  0  0  0
  -17.4880   -6.6250  -13.1540 O   0  0  0  0  0  0  0  0  0  0  0  0
  -16.9950   -6.5130  -11.8350 C   0  0  0  0  0  0  0  0  0  0  0  0
  -16.3910   -7.7460  -11.3340 C   0  0  0  0  0  0  0  0  0  0  0  0
  -15.7770   -7.5130  -10.1050 O   0  0  0  0  0  0  0  0  0  0  0  0
  -15.2035   -9.4539  -14.4688 H   0  0  0  0  0  0  0  0  0  0  0  0
  -15.0792   -6.8480  -10.2131 H   0  0  0  0  0  0  0  0  0  0  0  0
  -17.1400   -7.1940  -15.4230 C   0  0  0  0  0  0  0  0  0  0  0  0
  -17.4570   -5.8860  -15.9000 O   0  0  0  0  0  0  0  0  0  0  0  0
  -16.6432   -5.3639  -15.9770 H   0  0  0  0  0  0  0  0  0  0  0  0
  -15.0150   -9.4610  -11.7240 O   0  0  0  0  0  0  0  0  0  0  0  0
  -11.8610  -10.7790  -11.0790 C   0  0  0  0  0  0  0  0  0  0  0  0
  -11.5980  -11.1220  -12.5730 C   0  0  0  0  0  0  0  0  0  0  0  0
  -10.2280  -11.0080  -12.8300 O   0  0  0  0  0  0  0  0  0  0  0  0
  -12.2260  -10.1030  -13.4920 C   0  0  0  0  0  0  0  0  0  0  0  0
  -13.5940  -10.1590  -13.2510 O   0  0  0  0  0  0  0  0  0  0  0  0
  -13.8110   -9.7280  -11.8850 C   0  0  0  0  0  0  0  0  0  0  0  0
  -13.3590  -10.7710  -10.9110 C   0  0  0  0  0  0  0  0  0  0  0  0
  -13.7740  -10.3850   -9.6660 O   0  0  0  0  0  0  0  0  0  0  0  0
   -9.9412  -10.0977  -12.6568 H   0  0  0  0  0  0  0  0  0  0  0  0
  -13.4435   -9.4928   -9.4772 H   0  0  0  0  0  0  0  0  0  0  0  0
  -11.9510  -10.4010  -14.9050 C   0  0  0  0  0  0  0  0  0  0  0  0
  -12.8320   -9.7560  -15.7500 O   0  0  0  0  0  0  0  0  0  0  0  0
  -12.7453   -8.7966  -15.6364 H   0  0  0  0  0  0  0  0  0  0  0  0
  -11.4250  -11.7620  -10.2220 O   0  0  0  0  0  0  0  0  0  0  0  0
   -8.1400  -11.2270  -10.4700 C   0  0  0  0  0  0  0  0  0  0  0  0
   -9.2520  -11.8130  -10.7410 O   0  0  0  0  0  0  0  0  0  0  0  0
  -10.2590  -11.3340   -9.7110 C   0  0  0  0  0  0  0  0  0  0  0  0
  -10.0280  -11.7710   -8.3270 C   0  0  0  0  0  0  0  0  0  0  0  0
  -11.0670  -11.3500   -7.5200 O   0  0  0  0  0  0  0  0  0  0  0  0
   -8.6950  -11.1660   -7.9720 C   0  0  0  0  0  0  0  0  0  0  0  0
   -8.3010  -11.6120   -6.7380 O   0  0  0  0  0  0  0  0  0  0  0  0
   -7.6560  -11.5960   -9.0360 C   0  0  0  0  0  0  0  0  0  0  0  0
   -6.4250  -11.0480   -8.8490 O   0  0  0  0  0  0  0  0  0  0  0  0
  -11.1552  -10.3861   -7.5830 H   0  0  0  0  0  0  0  0  0  0  0  0
   -8.2278  -12.5791   -6.7520 H   0  0  0  0  0  0  0  0  0  0  0  0
   -6.4820  -10.0845   -8.9450 H   0  0  0  0  0  0  0  0  0  0  0  0
   -7.7140  -12.7350  -12.2980 O   0  0  0  0  0  0  0  0  0  0  0  0
   -7.1660  -11.7020  -11.5390 C   0  0  0  0  0  0  0  0  0  0  0  0
   -7.0737  -13.0175  -12.9696 H   0  0  0  0  0  0  0  0  0  0  0  0
  -18.4030   -5.0110  -10.8030 C   0  0  0  0  0  0  0  0  0  0  0  0
  -19.6340   -4.4920  -11.4780 C   0  0  0  0  0  0  0  0  0  0  0  0
  -19.4400   -4.5090  -12.8540 O   0  0  0  0  0  0  0  0  0  0  0  0
  -19.8920   -3.1310  -10.8710 C   0  0  0  0  0  0  0  0  0  0  0  0
  -20.1480   -3.3200   -9.4540 O   0  0  0  0  0  0  0  0  0  0  0  0
  -18.9910   -3.8030   -8.7520 C   0  0  0  0  0  0  0  0  0  0  0  0
  -18.5620   -5.0560   -9.3010 C   0  0  0  0  0  0  0  0  0  0  0  0
  -17.3880   -5.5850   -8.8200 O   0  0  0  0  0  0  0  0  0  0  0  0
  -18.6561   -3.9828  -13.0765 H   0  0  0  0  0  0  0  0  0  0  0  0
  -16.6445   -5.0269   -9.0969 H   0  0  0  0  0  0  0  0  0  0  0  0
  -21.1580   -2.5670  -11.4850 C   0  0  0  0  0  0  0  0  0  0  0  0
  -21.9930   -2.0720  -10.5440 O   0  0  0  0  0  0  0  0  0  0  0  0
  -22.2549   -2.7827   -9.9380 H   0  0  0  0  0  0  0  0  0  0  0  0
  -19.2890   -4.1120   -7.3810 O   0  0  0  0  0  0  0  0  0  0  0  0
  -19.1250   -3.0200   -6.5400 C   0  0  0  0  0  0  0  0  0  0  0  0
  -20.4120   -2.7260   -5.7980 C   0  0  0  0  0  0  0  0  0  0  0  0
  -21.4380   -2.8360   -6.7350 O   0  0  0  0  0  0  0  0  0  0  0  0
  -20.2070   -1.3640   -5.1150 C   0  0  0  0  0  0  0  0  0  0  0  0
  -19.5480   -2.0190   -3.9320 O   0  0  0  0  0  0  0  0  0  0  0  0
  -18.2980   -2.6640   -4.2330 C   0  0  0  0  0  0  0  0  0  0  0  0
  -18.4620   -3.6610   -5.2900 C   0  0  0  0  0  0  0  0  0  0  0  0
  -17.3070   -4.2480   -5.6910 O   0  0  0  0  0  0  0  0  0  0  0  0
  -21.2560   -2.2476   -7.4843 H   0  0  0  0  0  0  0  0  0  0  0  0
  -16.7265   -3.5807   -6.0893 H   0  0  0  0  0  0  0  0  0  0  0  0
  -21.4480   -0.7380   -4.6190 C   0  0  0  0  0  0  0  0  0  0  0  0
  -21.1010    0.4450   -3.9120 O   0  0  0  0  0  0  0  0  0  0  0  0
  -20.5161    0.2195   -3.1718 H   0  0  0  0  0  0  0  0  0  0  0  0
  -17.8960   -3.3320   -3.0850 O   0  0  0  0  0  0  0  0  0  0  0  0
  -17.0900   -2.5840   -2.2510 C   0  0  0  0  0  0  0  0  0  0  0  0
  -15.9430   -3.5750   -1.9850 C   0  0  0  0  0  0  0  0  0  0  0  0
  -15.4140   -3.9310   -3.2050 O   0  0  0  0  0  0  0  0  0  0  0  0
  -15.0280   -2.9400   -1.0110 C   0  0  0  0  0  0  0  0  0  0  0  0
  -14.0060   -3.7890   -0.7360 O   0  0  0  0  0  0  0  0  0  0  0  0
  -15.7210   -2.5960    0.2430 O   0  0  0  0  0  0  0  0  0  0  0  0
  -16.7470   -1.5790   -0.0730 C   0  0  0  0  0  0  0  0  0  0  0  0
  -17.7970   -2.1800   -0.9630 C   0  0  0  0  0  0  0  0  0  0  0  0
  -18.8360   -1.2750   -1.2720 O   0  0  0  0  0  0  0  0  0  0  0  0
  -15.1254   -3.1343   -3.6772 H   0  0  0  0  0  0  0  0  0  0  0  0
  -14.3584   -4.6025   -0.3424 H   0  0  0  0  0  0  0  0  0  0  0  0
  -18.4675   -0.5043   -1.7315 H   0  0  0  0  0  0  0  0  0  0  0  0
  -17.3170   -1.1320    1.2650 C   0  0  0  0  0  0  0  0  0  0  0  0
  -17.9790   -2.1390    1.9060 O   0  0  0  0  0  0  0  0  0  0  0  0
  -18.7269   -2.4318    1.3621 H   0  0  0  0  0  0  0  0  0  0  0  0
 13 12  1  0
 27 26  1  0
 12  5  1  0
 26 19  1  0
  4  3  1  0
  5  3  1  0
  5  6  1  0
 19 20  1  0
 19 17  1  0
  3  2  1  0
 20 21  1  0
  6  7  1  0
 47 46  1  0
 18 17  1  0
 17 16  1  0
  2 15  1  0
  2  8  1  0
 42 43  1  0
 21 15  1  0
 21 22  1  0
  7  8  1  0
  7  1  1  0
 43 30  1  0
 55 48  1  0
 55 56  1  0
 46 48  1  0
 46 45  1  0
  8  9  1  0
 16 22  1  0
 16 29  1  0
  1 45  1  0
 22 23  1  0
 48 49  1  0
 45 51  1  0
 31 30  1  0
 31 32  1  0
 30 37  1  0
 29 32  1  0
 32 33  1  0
 49 50  1  0
 51 52  1  0
 51 50  1  0
 37 38  1  0
 37 35  1  0
 50 58  1  0
 33 35  1  0
 33 34  1  0
 35 36  1  0
 58 59  1  0
 61 60  1  0
 59 60  1  0
 59 65  1  0
 60 62  1  0
 66 65  1  0
 65 64  1  0
 62 69  1  0
 62 63  1  0
 69 70  1  0
 64 63  1  0
 64 72  1  0
 75 74  1  0
 72 73  1  0
 73 74  1  0
 73 80  1  0
 74 76  1  0
 81 80  1  0
 76 77  1  0
 76 78  1  0
 80 79  1  0
 79 78  1  0
 79 85  1  0
 85 86  1  0
 42 44  1  0
 18 24  1  0
 27 28  1  0
  4 10  1  0
 13 14  1  0
 47 53  1  0
 56 57  1  0
 61 67  1  0
 70 71  1  0
 75 82  1  0
 77 83  1  0
 86 87  1  0
 81 84  1  0
 66 68  1  0
 52 54  1  0
  9 11  1  0
 23 25  1  0
 34 39  1  0
 36 40  1  0
 38 41  1  0
M  END
> <minimizedAffinity>
-3.94772

> <CNNscore>
0.8739120960

> <CNNaffinity>
4.2785792351

> <CNN_VS>
3.7391021252

> <CNNaffinity_variance>
0.7746500969

$$$$
