@<TRIPOS>MOLECULE
UD2
 46 48 0 0 0
SMALL
GASTEIGER

@<TRIPOS>ATOM
      1 P          20.5897   71.3369   -2.4797 P.3     1  UNL1        0.2189
      2 O          21.7154   70.3253   -3.0282 O.3     1  UNL1       -0.4371
      3 O          20.8136   72.6826   -3.0524 O.2     1  UNL1       -0.5170
      4 O          19.1329   70.8046   -2.9134 O.3     1  UNL1       -0.3112
      5 C          17.9304   71.5302   -2.6507 C.3     1  UNL1        0.1811
      6 C          16.7423   70.4877   -5.8815 C.3     1  UNL1        0.2383
      7 C          16.9933   69.1652   -5.1133 C.3     1  UNL1        0.1895
      8 O          16.0906   68.1453   -5.5450 O.3     1  UNL1       -0.3779
      9 C          16.7009   69.5786   -3.6500 C.3     1  UNL1        0.1713
     10 C          16.8530   71.1116   -3.6543 C.3     1  UNL1        0.1764
     11 O          17.2440   71.4992   -4.9811 O.3     1  UNL1       -0.3308
     12 O          15.3707   69.2085   -3.2835 O.3     1  UNL1       -0.3794
     13 H          16.2086   67.2984   -5.0938 H       1  UNL1        0.2106
     14 H          15.2018   68.2574   -3.3208 H       1  UNL1        0.2105
     15 N          17.4888   70.5020   -7.1415 N.ar    1  UNL1       -0.2551
     16 C          16.8244   70.5670   -8.3090 C.ar    1  UNL1        0.3323
     17 N          17.4847   70.5814   -9.4821 N.ar    1  UNL1       -0.2743
     18 C          18.8321   70.5323   -9.5031 C.ar    1  UNL1        0.2626
     19 C          19.5444   70.4647   -8.2815 C.ar    1  UNL1        0.0795
     20 C          18.8568   70.4560   -7.1202 C.ar    1  UNL1        0.0869
     21 O          15.6093   70.6120   -8.3052 O.2     1  UNL1       -0.2464
     22 O          19.4310   70.5457  -10.5641 O.2     1  UNL1       -0.2670
     23 H          16.9901   70.6273  -10.3148 H       1  UNL1        0.1734
     24 O          20.6752   71.4158   -0.8735 O.3     1  UNL1       -0.2703
     25 P          21.8624   71.2075    0.1942 P.3     1  UNL1        0.2208
     26 O          21.6491   69.8109    0.9674 O.3     1  UNL1       -0.4371
     27 O          23.1626   71.1866   -0.5110 O.2     1  UNL1       -0.5170
     28 O          21.8469   72.4174    1.2566 O.3     1  UNL1       -0.2865
     29 C          22.0536   72.2261    2.6573 C.3     1  UNL1        0.2611
     30 C          21.7467   73.5277    3.4018 C.3     1  UNL1        0.1582
     31 C          22.7179   74.6153    2.9327 C.3     1  UNL1        0.1625
     32 C          24.1538   74.1378    3.1662 C.3     1  UNL1        0.1686
     33 C          24.3680   72.8123    2.4306 C.3     1  UNL1        0.1760
     34 O          22.4866   75.8145    3.6756 O.3     1  UNL1       -0.3801
     35 O          24.3727   73.9488    4.5654 O.3     1  UNL1       -0.3794
     36 O          23.4134   71.8540    2.8913 O.3     1  UNL1       -0.3263
     37 H          23.0675   76.5474    3.4294 H       1  UNL1        0.2105
     38 H          25.2640   73.6451    4.7873 H       1  UNL1        0.2105
     39 C          19.5861   74.4062    4.1076 C.2     1  UNL1        0.2231
     40 C          18.1720   74.8333    3.8136 C.3     1  UNL1        0.0946
     41 N          20.3711   73.9428    3.1151 N.am    1  UNL1       -0.2994
     42 O          20.0193   74.4791    5.2386 O.2     1  UNL1       -0.2751
     43 H          20.0249   73.8834    2.2108 H       1  UNL1        0.1496
     44 C          25.7819   72.2981    2.7077 C.3     1  UNL1        0.1693
     45 O          25.9350   70.9946    2.1422 O.3     1  UNL1       -0.3794
     46 H          26.8095   70.6057    2.2799 H       1  UNL1        0.2105
@<TRIPOS>BOND
     1    29    30    1
     2    30    41    1
     3    30    31    1
     4    31    34    1
     5    31    32    1
     6    32    35    1
     7    32    33    1
     8    33    36    1
     9    33    44    1
    10    39    40    1
    11    39    42    2
    12    39    41   am
    13    41    43    1
    14    29    28    1
    15    34    37    1
    16    35    38    1
    17    29    36    1
    18    44    45    1
    19    45    46    1
    20    15     6    1
    21    15    16   ar
    22    16    21    2
    23    16    17   ar
    24    17    23    1
    25    17    18   ar
    26    18    19   ar
    27    19    20   ar
    28    15    20   ar
    29    18    22    2
    30     6     7    1
    31     6    11    1
    32     7     9    1
    33     7     8    1
    34     8    13    1
    35     9    10    1
    36     9    12    1
    37    10     5    1
    38    10    11    1
    39    12    14    1
    40     5     4    1
    41     4     1    1
    42     1     2    1
    43     1    24    1
    44     1     3    2
    45    24    25    1
    46    28    25    1
    47    25    26    1
    48    25    27    2
@<TRIPOS>MOLECULE
UD2
 46 48 0 0 0
SMALL
GASTEIGER

@<TRIPOS>ATOM
      1 P          20.7529   71.1326   -3.1256 P.3     1  UNL1        0.2189
      2 O          20.9328   70.5636   -1.6305 O.3     1  UNL1       -0.4371
      3 O          20.7989   70.0112   -4.0896 O.2     1  UNL1       -0.5170
      4 O          19.3345   71.8859   -3.2458 O.3     1  UNL1       -0.3112
      5 C          18.1787   71.4894   -2.5054 C.3     1  UNL1        0.1811
      6 C          16.8778   70.5043   -5.7107 C.3     1  UNL1        0.2383
      7 C          17.1766   69.1683   -4.9841 C.3     1  UNL1        0.1895
      8 O          16.2712   68.1457   -5.4039 O.3     1  UNL1       -0.3779
      9 C          16.9368   69.5438   -3.5012 C.3     1  UNL1        0.1713
     10 C          17.0682   71.0786   -3.4754 C.3     1  UNL1        0.1764
     11 O          17.4011   71.5019   -4.8071 O.3     1  UNL1       -0.3308
     12 O          15.6272   69.1465   -3.0916 O.3     1  UNL1       -0.3794
     13 H          16.4183   67.2906   -4.9777 H       1  UNL1        0.2106
     14 H          15.4696   68.1942   -3.1445 H       1  UNL1        0.2105
     15 N          17.5736   70.5581   -6.9983 N.ar    1  UNL1       -0.2551
     16 C          16.8654   70.5149   -8.1408 C.ar    1  UNL1        0.3323
     17 N          17.4786   70.5624   -9.3383 N.ar    1  UNL1       -0.2743
     18 C          18.8220   70.6565   -9.4096 C.ar    1  UNL1        0.2626
     19 C          19.5799   70.7040   -8.2148 C.ar    1  UNL1        0.0795
     20 C          18.9385   70.6588   -7.0282 C.ar    1  UNL1        0.0869
     21 O          15.6535   70.4302   -8.0916 O.2     1  UNL1       -0.2464
     22 O          19.3782   70.7000  -10.4927 O.2     1  UNL1       -0.2670
     23 H          16.9530   70.5289  -10.1523 H       1  UNL1        0.1734
     24 O          21.9403   72.1703   -3.4518 O.3     1  UNL1       -0.2703
     25 P          23.5275   72.1742   -3.1803 P.3     1  UNL1        0.2208
     26 O          24.0619   70.6570   -3.1028 O.3     1  UNL1       -0.4371
     27 O          24.2149   72.8831   -4.2818 O.2     1  UNL1       -0.5170
     28 O          23.8317   72.9226   -1.7874 O.3     1  UNL1       -0.2865
     29 C          22.9007   73.8049   -1.1582 C.3     1  UNL1        0.2611
     30 C          23.6617   74.8946   -0.3992 C.3     1  UNL1        0.1582
     31 C          24.5037   74.2440    0.7028 C.3     1  UNL1        0.1625
     32 C          23.5852   73.4316    1.6197 C.3     1  UNL1        0.1686
     33 C          22.8269   72.3980    0.7826 C.3     1  UNL1        0.1760
     34 O          25.1608   75.2600    1.4638 O.3     1  UNL1       -0.3801
     35 O          22.6533   74.3060    2.2586 O.3     1  UNL1       -0.3794
     36 O          22.0892   73.0663   -0.2426 O.3     1  UNL1       -0.3263
     37 H          25.7135   74.9187    2.1803 H       1  UNL1        0.2105
     38 H          22.0379   73.8577    2.8555 H       1  UNL1        0.2105
     39 C          24.2494   76.8809   -1.6824 C.2     1  UNL1        0.2231
     40 C          25.1513   77.6215   -2.6346 C.3     1  UNL1        0.0946
     41 N          24.5394   75.6142   -1.3256 N.am    1  UNL1       -0.2994
     42 O          23.2609   77.4248   -1.2360 O.2     1  UNL1       -0.2751
     43 H          25.3291   75.1786   -1.6831 H       1  UNL1        0.1496
     44 C          21.8628   71.6219    1.6818 C.3     1  UNL1        0.1693
     45 O          21.6562   70.3143    1.1435 O.3     1  UNL1       -0.3794
     46 H          21.0540   69.7649    1.6636 H       1  UNL1        0.2105
@<TRIPOS>BOND
     1    29    30    1
     2    30    41    1
     3    30    31    1
     4    31    34    1
     5    31    32    1
     6    32    35    1
     7    32    33    1
     8    33    36    1
     9    33    44    1
    10    39    40    1
    11    39    42    2
    12    39    41   am
    13    41    43    1
    14    29    28    1
    15    34    37    1
    16    35    38    1
    17    29    36    1
    18    44    45    1
    19    45    46    1
    20    15     6    1
    21    15    16   ar
    22    16    21    2
    23    16    17   ar
    24    17    23    1
    25    17    18   ar
    26    18    19   ar
    27    19    20   ar
    28    15    20   ar
    29    18    22    2
    30     6     7    1
    31     6    11    1
    32     7     9    1
    33     7     8    1
    34     8    13    1
    35     9    10    1
    36     9    12    1
    37    10     5    1
    38    10    11    1
    39    12    14    1
    40     5     4    1
    41     4     1    1
    42     1     2    1
    43     1    24    1
    44     1     3    2
    45    24    25    1
    46    28    25    1
    47    25    26    1
    48    25    27    2
@<TRIPOS>MOLECULE
UD2
 46 48 0 0 0
SMALL
GASTEIGER

@<TRIPOS>ATOM
      1 P          20.3389   72.6211   -2.5363 P.3     1  UNL1        0.2189
      2 O          21.1841   71.3399   -3.0214 O.3     1  UNL1       -0.4371
      3 O          20.8472   73.8338   -3.2145 O.2     1  UNL1       -0.5170
      4 O          18.7856   72.4105   -2.9060 O.3     1  UNL1       -0.3112
      5 C          18.0479   71.2466   -2.5287 C.3     1  UNL1        0.1811
      6 C          16.7352   70.5446   -5.8029 C.3     1  UNL1        0.2383
      7 C          16.8610   69.1553   -5.1274 C.3     1  UNL1        0.1895
      8 O          15.8583   68.2599   -5.6118 O.3     1  UNL1       -0.3779
      9 C          16.6232   69.4962   -3.6359 C.3     1  UNL1        0.1713
     10 C          16.9259   71.0038   -3.5413 C.3     1  UNL1        0.1764
     11 O          17.3419   71.4393   -4.8454 O.3     1  UNL1       -0.3308
     12 O          15.2661   69.2344   -3.2745 O.3     1  UNL1       -0.3794
     13 H          15.8960   67.3773   -5.2193 H       1  UNL1        0.2106
     14 H          15.0039   68.3091   -3.3719 H       1  UNL1        0.2105
     15 N          17.4687   70.5702   -7.0703 N.ar    1  UNL1       -0.2551
     16 C          16.7914   70.5753   -8.2323 C.ar    1  UNL1        0.3323
     17 N          17.4396   70.5985   -9.4119 N.ar    1  UNL1       -0.2743
     18 C          18.7876   70.6189   -9.4453 C.ar    1  UNL1        0.2626
     19 C          19.5132   70.6148   -8.2298 C.ar    1  UNL1        0.0795
     20 C          18.8374   70.5956   -7.0617 C.ar    1  UNL1        0.0869
     21 O          15.5758   70.5574   -8.2172 O.2     1  UNL1       -0.2464
     22 O          19.3755   70.6403  -10.5123 O.2     1  UNL1       -0.2670
     23 H          16.9359   70.6007  -10.2404 H       1  UNL1        0.1734
     24 O          20.4919   72.7932   -0.9424 O.3     1  UNL1       -0.2703
     25 P          21.4203   72.0957    0.1732 P.3     1  UNL1        0.2208
     26 O          21.0416   70.5344    0.2861 O.3     1  UNL1       -0.4371
     27 O          22.8419   72.2313   -0.2126 O.2     1  UNL1       -0.5170
     28 O          21.1791   72.8110    1.5955 O.3     1  UNL1       -0.2865
     29 C          21.9950   73.8804    2.0772 C.3     1  UNL1        0.2611
     30 C          22.7618   73.4190    3.3190 C.3     1  UNL1        0.1582
     31 C          21.7615   73.0633    4.4232 C.3     1  UNL1        0.1625
     32 C          20.8762   74.2799    4.7065 C.3     1  UNL1        0.1686
     33 C          20.1819   74.7082    3.4109 C.3     1  UNL1        0.1760
     34 O          22.4703   72.7015    5.6106 O.3     1  UNL1       -0.3801
     35 O          21.6822   75.3539    5.1946 O.3     1  UNL1       -0.3794
     36 O          21.1673   74.9949    2.4166 O.3     1  UNL1       -0.3263
     37 H          21.8978   72.4628    6.3526 H       1  UNL1        0.2105
     38 H          21.1856   76.1597    5.3949 H       1  UNL1        0.2105
     39 C          24.8640   72.3802    2.6562 C.2     1  UNL1        0.2231
     40 C          25.6909   71.1682    2.3157 C.3     1  UNL1        0.0946
     41 N          23.5653   72.2396    2.9876 N.am    1  UNL1       -0.2994
     42 O          25.3670   73.4841    2.6322 O.2     1  UNL1       -0.2751
     43 H          23.1626   71.3573    3.0060 H       1  UNL1        0.1496
     44 C          19.3417   75.9596    3.6725 C.3     1  UNL1        0.1693
     45 O          18.8544   75.9350    5.0158 O.3     1  UNL1       -0.3794
     46 H          18.3122   76.6999    5.2522 H       1  UNL1        0.2105
@<TRIPOS>BOND
     1    29    30    1
     2    30    41    1
     3    30    31    1
     4    31    34    1
     5    31    32    1
     6    32    35    1
     7    32    33    1
     8    33    36    1
     9    33    44    1
    10    39    40    1
    11    39    42    2
    12    39    41   am
    13    41    43    1
    14    29    28    1
    15    34    37    1
    16    35    38    1
    17    29    36    1
    18    44    45    1
    19    45    46    1
    20    15     6    1
    21    15    16   ar
    22    16    21    2
    23    16    17   ar
    24    17    23    1
    25    17    18   ar
    26    18    19   ar
    27    19    20   ar
    28    15    20   ar
    29    18    22    2
    30     6     7    1
    31     6    11    1
    32     7     9    1
    33     7     8    1
    34     8    13    1
    35     9    10    1
    36     9    12    1
    37    10     5    1
    38    10    11    1
    39    12    14    1
    40     5     4    1
    41     4     1    1
    42     1     2    1
    43     1    24    1
    44     1     3    2
    45    24    25    1
    46    28    25    1
    47    25    26    1
    48    25    27    2
@<TRIPOS>MOLECULE
UD2
 46 48 0 0 0
SMALL
GASTEIGER

@<TRIPOS>ATOM
      1 P          20.3086   70.8025   -3.0229 P.3     1  UNL1        0.2189
      2 O          20.7403   69.5550   -3.9442 O.3     1  UNL1       -0.4371
      3 O          20.3902   72.0511   -3.8123 O.2     1  UNL1       -0.5170
      4 O          18.7975   70.5912   -2.5074 O.3     1  UNL1       -0.3112
      5 C          17.7876   71.5947   -2.6284 C.3     1  UNL1        0.1811
      6 C          16.6879   70.5147   -5.8782 C.3     1  UNL1        0.2383
      7 C          16.9639   69.2010   -5.1037 C.3     1  UNL1        0.1895
      8 O          16.0991   68.1546   -5.5498 O.3     1  UNL1       -0.3779
      9 C          16.6336   69.6069   -3.6464 C.3     1  UNL1        0.1713
     10 C          16.7409   71.1438   -3.6502 C.3     1  UNL1        0.1764
     11 O          17.1438   71.5413   -4.9705 O.3     1  UNL1       -0.3308
     12 O          15.3085   69.1984   -3.3029 O.3     1  UNL1       -0.3794
     13 H          16.2339   67.3120   -5.0953 H       1  UNL1        0.2106
     14 H          15.1681   68.2428   -3.3418 H       1  UNL1        0.2105
     15 N          17.4559   70.5497   -7.1248 N.ar    1  UNL1       -0.2551
     16 C          16.8106   70.5953   -8.3039 C.ar    1  UNL1        0.3323
     17 N          17.4909   70.6279   -9.4651 N.ar    1  UNL1       -0.2743
     18 C          18.8394   70.6171   -9.4623 C.ar    1  UNL1        0.2626
     19 C          19.5315   70.5703   -8.2282 C.ar    1  UNL1        0.0795
     20 C          18.8241   70.5425   -7.0792 C.ar    1  UNL1        0.0869
     21 O          15.5949   70.6058   -8.3216 O.2     1  UNL1       -0.2464
     22 O          19.4563   70.6470  -10.5125 O.2     1  UNL1       -0.2670
     23 H          17.0100   70.6595  -10.3065 H       1  UNL1        0.1734
     24 O          21.2979   70.9024   -1.7562 O.3     1  UNL1       -0.2703
     25 P          21.1553   71.5091   -0.2715 P.3     1  UNL1        0.2208
     26 O          19.6274   71.9503   -0.0171 O.3     1  UNL1       -0.4371
     27 O          21.5435   70.4827    0.7206 O.2     1  UNL1       -0.5170
     28 O          22.1168   72.7919   -0.1214 O.3     1  UNL1       -0.2865
     29 C          23.5193   72.7493   -0.3907 C.3     1  UNL1        0.2611
     30 C          24.1986   73.9663    0.2418 C.3     1  UNL1        0.1582
     31 C          23.6407   75.2415   -0.3979 C.3     1  UNL1        0.1625
     32 C          23.8579   75.1772   -1.9122 C.3     1  UNL1        0.1686
     33 C          23.1915   73.9132   -2.4618 C.3     1  UNL1        0.1760
     34 O          24.3218   76.3798    0.1345 O.3     1  UNL1       -0.3801
     35 O          25.2583   75.1401   -2.1927 O.3     1  UNL1       -0.3794
     36 O          23.7333   72.7664   -1.8036 O.3     1  UNL1       -0.3263
     37 H          24.0179   77.2239   -0.2266 H       1  UNL1        0.2105
     38 H          25.4703   75.0979   -3.1357 H       1  UNL1        0.2105
     39 C          24.9141   74.2966    2.5476 C.2     1  UNL1        0.2231
     40 C          24.6388   74.3143    4.0283 C.3     1  UNL1        0.0946
     41 N          23.9300   73.9831    1.6820 N.am    1  UNL1       -0.2994
     42 O          26.0226   74.5646    2.1333 O.2     1  UNL1       -0.2751
     43 H          23.0439   73.7678    2.0128 H       1  UNL1        0.1496
     44 C          23.4550   73.8107   -3.9653 C.3     1  UNL1        0.1693
     45 O          24.2022   72.6235   -4.2389 O.3     1  UNL1       -0.3794
     46 H          24.4060   72.4934   -5.1751 H       1  UNL1        0.2105
@<TRIPOS>BOND
     1    29    30    1
     2    30    41    1
     3    30    31    1
     4    31    34    1
     5    31    32    1
     6    32    35    1
     7    32    33    1
     8    33    36    1
     9    33    44    1
    10    39    40    1
    11    39    42    2
    12    39    41   am
    13    41    43    1
    14    29    28    1
    15    34    37    1
    16    35    38    1
    17    29    36    1
    18    44    45    1
    19    45    46    1
    20    15     6    1
    21    15    16   ar
    22    16    21    2
    23    16    17   ar
    24    17    23    1
    25    17    18   ar
    26    18    19   ar
    27    19    20   ar
    28    15    20   ar
    29    18    22    2
    30     6     7    1
    31     6    11    1
    32     7     9    1
    33     7     8    1
    34     8    13    1
    35     9    10    1
    36     9    12    1
    37    10     5    1
    38    10    11    1
    39    12    14    1
    40     5     4    1
    41     4     1    1
    42     1     2    1
    43     1    24    1
    44     1     3    2
    45    24    25    1
    46    28    25    1
    47    25    26    1
    48    25    27    2
@<TRIPOS>MOLECULE
UD2
 46 48 0 0 0
SMALL
GASTEIGER

@<TRIPOS>ATOM
      1 P          23.3754   71.5926   -2.2189 P.3     1  UNL1        0.2189
      2 O          23.6764   73.1650   -2.3876 O.3     1  UNL1       -0.4371
      3 O          24.2781   70.8196   -3.1000 O.2     1  UNL1       -0.5170
      4 O          23.6212   71.1607   -0.6869 O.3     1  UNL1       -0.3112
      5 C          24.0144   72.0863    0.3279 C.3     1  UNL1        0.1811
      6 C          22.9638   72.7763    3.6979 C.3     1  UNL1        0.2383
      7 C          21.9845   73.5863    2.8108 C.3     1  UNL1        0.1895
      8 O          20.7048   73.7002    3.4363 O.3     1  UNL1       -0.3779
      9 C          21.9005   72.7113    1.5362 C.3     1  UNL1        0.1713
     10 C          23.1763   71.8491    1.5866 C.3     1  UNL1        0.1764
     11 O          23.9176   72.2495    2.7501 O.3     1  UNL1       -0.3308
     12 O          20.7359   71.8848    1.5744 O.3     1  UNL1       -0.3794
     13 H          20.0574   74.1992    2.9201 H       1  UNL1        0.2106
     14 H          19.9043   72.3767    1.6039 H       1  UNL1        0.2105
     15 N          23.6277   73.6521    4.6659 N.ar    1  UNL1       -0.2551
     16 C          23.1055   73.8027    5.8961 C.ar    1  UNL1        0.3323
     17 N          23.6944   74.6013    6.8058 N.ar    1  UNL1       -0.2743
     18 C          24.8261   75.2653    6.4946 C.ar    1  UNL1        0.2626
     19 C          25.3874   75.1153    5.2036 C.ar    1  UNL1        0.0795
     20 C          24.7781   74.3048    4.3129 C.ar    1  UNL1        0.0869
     21 O          22.0856   73.2099    6.1907 O.2     1  UNL1       -0.2464
     22 O          25.3604   75.9882    7.3171 O.2     1  UNL1       -0.2670
     23 H          23.3039   74.6996    7.6879 H       1  UNL1        0.1734
     24 O          21.8453   71.2926   -2.6214 O.3     1  UNL1       -0.2703
     25 P          20.4473   72.0387   -2.3355 P.3     1  UNL1        0.2208
     26 O          19.6160   71.2143   -1.2296 O.3     1  UNL1       -0.4371
     27 O          20.7106   73.4059   -1.8358 O.2     1  UNL1       -0.5170
     28 O          19.5939   72.1200   -3.6985 O.3     1  UNL1       -0.2865
     29 C          19.7830   71.2182   -4.7904 C.3     1  UNL1        0.2611
     30 C          19.5795   71.9645   -6.1110 C.3     1  UNL1        0.1582
     31 C          18.1391   72.4813   -6.1788 C.3     1  UNL1        0.1625
     32 C          17.1767   71.3004   -6.0252 C.3     1  UNL1        0.1686
     33 C          17.4729   70.5795   -4.7074 C.3     1  UNL1        0.1760
     34 O          17.9187   73.1160   -7.4405 O.3     1  UNL1       -0.3801
     35 O          17.3539   70.3948   -7.1159 O.3     1  UNL1       -0.3794
     36 O          18.8363   70.1518   -4.6963 O.3     1  UNL1       -0.3263
     37 H          17.0252   73.4685   -7.5522 H       1  UNL1        0.2105
     38 H          16.7751   69.6202   -7.0830 H       1  UNL1        0.2105
     39 C          21.4232   73.1540   -7.1711 C.2     1  UNL1        0.2231
     40 C          22.3791   74.3156   -7.2455 C.3     1  UNL1        0.0946
     41 N          20.5091   73.0947   -6.1827 N.am    1  UNL1       -0.2994
     42 O          21.4759   72.2707   -8.0013 O.2     1  UNL1       -0.2751
     43 H          20.4673   73.8002   -5.5181 H       1  UNL1        0.1496
     44 C          16.5552   69.3627   -4.5746 C.3     1  UNL1        0.1693
     45 O          17.0229   68.5258   -3.5148 O.3     1  UNL1       -0.3794
     46 H          16.4875   67.7331   -3.3733 H       1  UNL1        0.2105
@<TRIPOS>BOND
     1    29    30    1
     2    30    41    1
     3    30    31    1
     4    31    34    1
     5    31    32    1
     6    32    35    1
     7    32    33    1
     8    33    36    1
     9    33    44    1
    10    39    40    1
    11    39    42    2
    12    39    41   am
    13    41    43    1
    14    29    28    1
    15    34    37    1
    16    35    38    1
    17    29    36    1
    18    44    45    1
    19    45    46    1
    20    15     6    1
    21    15    16   ar
    22    16    21    2
    23    16    17   ar
    24    17    23    1
    25    17    18   ar
    26    18    19   ar
    27    19    20   ar
    28    15    20   ar
    29    18    22    2
    30     6     7    1
    31     6    11    1
    32     7     9    1
    33     7     8    1
    34     8    13    1
    35     9    10    1
    36     9    12    1
    37    10     5    1
    38    10    11    1
    39    12    14    1
    40     5     4    1
    41     4     1    1
    42     1     2    1
    43     1    24    1
    44     1     3    2
    45    24    25    1
    46    28    25    1
    47    25    26    1
    48    25    27    2
@<TRIPOS>MOLECULE
UD2
 46 48 0 0 0
SMALL
GASTEIGER

@<TRIPOS>ATOM
      1 P          16.5034   69.8216   -2.6063 P.3     1  UNL1        0.2189
      2 O          17.1648   68.4161   -2.1837 O.3     1  UNL1       -0.4371
      3 O          16.3524   69.8740   -4.0771 O.2     1  UNL1       -0.5170
      4 O          15.0568   69.9638   -1.9128 O.3     1  UNL1       -0.3112
      5 C          14.8438   69.7722   -0.5130 C.3     1  UNL1        0.1811
      6 C          13.1198   67.3379    1.4966 C.3     1  UNL1        0.2383
      7 C          12.0360   68.3867    1.1398 C.3     1  UNL1        0.1895
      8 O          10.7462   67.7780    1.0529 O.3     1  UNL1       -0.3779
      9 C          12.5076   68.8822   -0.2492 C.3     1  UNL1        0.1713
     10 C          14.0026   68.5124   -0.2932 C.3     1  UNL1        0.1764
     11 O          14.3337   67.9182    0.9719 O.3     1  UNL1       -0.3308
     12 O          11.7945   68.2087   -1.2878 O.3     1  UNL1       -0.3794
     13 H          10.0343   68.3939    0.8324 H       1  UNL1        0.2106
     14 H          10.8397   68.3589   -1.2717 H       1  UNL1        0.2105
     15 N          13.2145   67.1674    2.9482 N.ar    1  UNL1       -0.2551
     16 C          12.9984   65.9567    3.4924 C.ar    1  UNL1        0.3323
     17 N          13.0786   65.7710    4.8233 N.ar    1  UNL1       -0.2743
     18 C          13.3810   66.8041    5.6357 C.ar    1  UNL1        0.2626
     19 C          13.6120   68.0838    5.0762 C.ar    1  UNL1        0.0795
     20 C          13.5290   68.2402    3.7382 C.ar    1  UNL1        0.0869
     21 O          12.7251   65.0161    2.7720 O.2     1  UNL1       -0.2464
     22 O          13.4543   66.6373    6.8404 O.2     1  UNL1       -0.2670
     23 H          12.9186   64.8918    5.1994 H       1  UNL1        0.1734
     24 O          17.4517   71.0290   -2.1204 O.3     1  UNL1       -0.2703
     25 P          19.0311   71.3234   -2.2294 P.3     1  UNL1        0.2208
     26 O          19.3718   72.7065   -1.4780 O.3     1  UNL1       -0.4371
     27 O          19.7839   70.2194   -1.5947 O.2     1  UNL1       -0.5170
     28 O          19.4499   71.4372   -3.7800 O.3     1  UNL1       -0.2865
     29 C          20.5017   70.6643   -4.3610 C.3     1  UNL1        0.2611
     30 C          21.8175   71.4408   -4.2688 C.3     1  UNL1        0.1582
     31 C          21.6929   72.7372   -5.0752 C.3     1  UNL1        0.1625
     32 C          21.3219   72.3932   -6.5203 C.3     1  UNL1        0.1686
     33 C          20.0248   71.5799   -6.5257 C.3     1  UNL1        0.1760
     34 O          22.9412   73.4334   -5.0554 O.3     1  UNL1       -0.3801
     35 O          22.3706   71.6247   -7.1127 O.3     1  UNL1       -0.3794
     36 O          20.1988   70.4036   -5.7331 O.3     1  UNL1       -0.3263
     37 H          22.9345   74.2661   -5.5471 H       1  UNL1        0.2105
     38 H          22.2022   71.3701   -8.0308 H       1  UNL1        0.2105
     39 C          23.2787   71.4074   -2.3191 C.2     1  UNL1        0.2231
     40 C          23.5695   71.7365   -0.8783 C.3     1  UNL1        0.0946
     41 N          22.0995   71.7611   -2.8673 N.am    1  UNL1       -0.2994
     42 O          24.1063   70.8233   -2.9870 O.2     1  UNL1       -0.2751
     43 H          21.4372   72.2272   -2.3333 H       1  UNL1        0.1496
     44 C          19.6791   71.1811   -7.9616 C.3     1  UNL1        0.1693
     45 O          18.4907   71.8603   -8.3723 O.3     1  UNL1       -0.3794
     46 H          18.2114   71.6546   -9.2750 H       1  UNL1        0.2105
@<TRIPOS>BOND
     1    29    30    1
     2    30    41    1
     3    30    31    1
     4    31    34    1
     5    31    32    1
     6    32    35    1
     7    32    33    1
     8    33    36    1
     9    33    44    1
    10    39    40    1
    11    39    42    2
    12    39    41   am
    13    41    43    1
    14    29    28    1
    15    34    37    1
    16    35    38    1
    17    29    36    1
    18    44    45    1
    19    45    46    1
    20    15     6    1
    21    15    16   ar
    22    16    21    2
    23    16    17   ar
    24    17    23    1
    25    17    18   ar
    26    18    19   ar
    27    19    20   ar
    28    15    20   ar
    29    18    22    2
    30     6     7    1
    31     6    11    1
    32     7     9    1
    33     7     8    1
    34     8    13    1
    35     9    10    1
    36     9    12    1
    37    10     5    1
    38    10    11    1
    39    12    14    1
    40     5     4    1
    41     4     1    1
    42     1     2    1
    43     1    24    1
    44     1     3    2
    45    24    25    1
    46    28    25    1
    47    25    26    1
    48    25    27    2
@<TRIPOS>MOLECULE
UD2
 46 48 0 0 0
SMALL
GASTEIGER

@<TRIPOS>ATOM
      1 P          20.7233   73.9237   -1.0190 P.3     1  UNL1        0.2189
      2 O          19.7074   75.1463   -0.7648 O.3     1  UNL1       -0.4371
      3 O          21.9587   74.4320   -1.6548 O.2     1  UNL1       -0.5170
      4 O          21.0898   73.2295    0.3873 O.3     1  UNL1       -0.3112
      5 C          22.2033   73.6332    1.1863 C.3     1  UNL1        0.1811
      6 C          25.3966   72.1719    1.9634 C.3     1  UNL1        0.2383
      7 C          24.3670   71.2634    2.6822 C.3     1  UNL1        0.1895
      8 O          24.8386   69.9165    2.7552 O.3     1  UNL1       -0.3779
      9 C          23.1349   71.3675    1.7503 C.3     1  UNL1        0.1713
     10 C          23.3699   72.6686    0.9594 C.3     1  UNL1        0.1764
     11 O          24.5885   73.2519    1.4475 O.3     1  UNL1       -0.3308
     12 O          23.0820   70.2467    0.8661 O.3     1  UNL1       -0.3794
     13 H          24.2294   69.3096    3.1970 H       1  UNL1        0.2106
     14 H          22.9941   69.3949    1.3145 H       1  UNL1        0.2105
     15 N          26.3895   72.6783    2.9135 N.ar    1  UNL1       -0.2551
     16 C          27.5334   71.9981    3.1079 C.ar    1  UNL1        0.3323
     17 N          28.4634   72.4401    3.9750 N.ar    1  UNL1       -0.2743
     18 C          28.2605   73.5809    4.6649 C.ar    1  UNL1        0.2626
     19 C          27.0614   74.3075    4.4693 C.ar    1  UNL1        0.0795
     20 C          26.1482   73.8433    3.5906 C.ar    1  UNL1        0.0869
     21 O          27.7299   70.9680    2.4925 O.2     1  UNL1       -0.2464
     22 O          29.1016   73.9822    5.4497 O.2     1  UNL1       -0.2670
     23 H          29.2821   71.9368    4.1041 H       1  UNL1        0.1734
     24 O          20.0281   72.8401   -1.9864 O.3     1  UNL1       -0.2703
     25 P          20.2071   71.2541   -2.1994 P.3     1  UNL1        0.2208
     26 O          21.7493   70.9282   -2.5302 O.3     1  UNL1       -0.4371
     27 O          19.8067   70.5421   -0.9661 O.2     1  UNL1       -0.5170
     28 O          19.2811   70.7693   -3.4242 O.3     1  UNL1       -0.2865
     29 C          18.5803   71.6765   -4.2769 C.3     1  UNL1        0.2611
     30 C          17.2015   71.1023   -4.6114 C.3     1  UNL1        0.1582
     31 C          17.3777   69.7869   -5.3764 C.3     1  UNL1        0.1625
     32 C          18.2181   70.0464   -6.6298 C.3     1  UNL1        0.1686
     33 C          19.5580   70.6615   -6.2173 C.3     1  UNL1        0.1760
     34 O          16.0962   69.2809   -5.7570 O.3     1  UNL1       -0.3801
     35 O          17.5231   70.9487   -7.4924 O.3     1  UNL1       -0.3794
     36 O          19.3223   71.8649   -5.4837 O.3     1  UNL1       -0.3263
     37 H          16.1323   68.4472   -6.2457 H       1  UNL1        0.2105
     38 H          17.9988   71.1591   -8.3082 H       1  UNL1        0.2105
     39 C          16.4944   69.6318   -2.8016 C.2     1  UNL1        0.2231
     40 C          15.7344   69.3741   -1.5271 C.3     1  UNL1        0.0946
     41 N          16.4617   70.8524   -3.3717 N.am    1  UNL1       -0.2994
     42 O          17.1368   68.7400   -3.3159 O.2     1  UNL1       -0.2751
     43 H          15.9475   71.5654   -2.9615 H       1  UNL1        0.1496
     44 C          20.3797   70.9790   -7.4681 C.3     1  UNL1        0.1693
     45 O          21.0904   69.8101   -7.8815 O.3     1  UNL1       -0.3794
     46 H          21.6340   69.9382   -8.6709 H       1  UNL1        0.2105
@<TRIPOS>BOND
     1    29    30    1
     2    30    41    1
     3    30    31    1
     4    31    34    1
     5    31    32    1
     6    32    35    1
     7    32    33    1
     8    33    36    1
     9    33    44    1
    10    39    40    1
    11    39    42    2
    12    39    41   am
    13    41    43    1
    14    29    28    1
    15    34    37    1
    16    35    38    1
    17    29    36    1
    18    44    45    1
    19    45    46    1
    20    15     6    1
    21    15    16   ar
    22    16    21    2
    23    16    17   ar
    24    17    23    1
    25    17    18   ar
    26    18    19   ar
    27    19    20   ar
    28    15    20   ar
    29    18    22    2
    30     6     7    1
    31     6    11    1
    32     7     9    1
    33     7     8    1
    34     8    13    1
    35     9    10    1
    36     9    12    1
    37    10     5    1
    38    10    11    1
    39    12    14    1
    40     5     4    1
    41     4     1    1
    42     1     2    1
    43     1    24    1
    44     1     3    2
    45    24    25    1
    46    28    25    1
    47    25    26    1
    48    25    27    2
@<TRIPOS>MOLECULE
UD2
 46 48 0 0 0
SMALL
GASTEIGER

@<TRIPOS>ATOM
      1 P          22.6248   72.3850   -3.9937 P.3     1  UNL1        0.2189
      2 O          23.4659   72.4440   -5.3650 O.3     1  UNL1       -0.4371
      3 O          22.9879   71.1624   -3.2437 O.2     1  UNL1       -0.5170
      4 O          22.9623   73.6823   -3.1011 O.3     1  UNL1       -0.3112
      5 C          22.0192   74.7290   -2.8636 C.3     1  UNL1        0.1811
      6 C          24.4820   76.8640   -4.3845 C.3     1  UNL1        0.2383
      7 C          23.8577   76.0837   -5.5692 C.3     1  UNL1        0.1895
      8 O          23.8730   76.8698   -6.7624 O.3     1  UNL1       -0.3779
      9 C          22.4074   75.8529   -5.0785 C.3     1  UNL1        0.1713
     10 C          22.4978   76.0114   -3.5487 C.3     1  UNL1        0.1764
     11 O          23.8761   76.2536   -3.2244 O.3     1  UNL1       -0.3308
     12 O          21.5309   76.8355   -5.6326 O.3     1  UNL1       -0.3794
     13 H          23.4934   76.4245   -7.5319 H       1  UNL1        0.2106
     14 H          21.4813   76.8199   -6.5979 H       1  UNL1        0.2105
     15 N          25.9358   76.6885   -4.3603 N.ar    1  UNL1       -0.2551
     16 C          26.4561   75.4565   -4.2177 C.ar    1  UNL1        0.3323
     17 N          27.7884   75.2657   -4.1919 N.ar    1  UNL1       -0.2743
     18 C          28.6267   76.3153   -4.3114 C.ar    1  UNL1        0.2626
     19 C          28.0928   77.6176   -4.4631 C.ar    1  UNL1        0.0795
     20 C          26.7531   77.7790   -4.4899 C.ar    1  UNL1        0.0869
     21 O          25.7121   74.5009   -4.1091 O.2     1  UNL1       -0.2464
     22 O          29.8328   76.1440   -4.2886 O.2     1  UNL1       -0.2670
     23 H          28.1468   74.3709   -4.0872 H       1  UNL1        0.1734
     24 O          21.0502   72.3608   -4.3302 O.3     1  UNL1       -0.2703
     25 P          19.7790   71.6180   -3.6781 P.3     1  UNL1        0.2208
     26 O          20.2870   70.4258   -2.7219 O.3     1  UNL1       -0.4371
     27 O          18.9952   72.5879   -2.8822 O.2     1  UNL1       -0.5170
     28 O          18.8539   71.0111   -4.8479 O.3     1  UNL1       -0.2865
     29 C          18.0038   71.8174   -5.6655 C.3     1  UNL1        0.2611
     30 C          16.6344   71.1465   -5.7967 C.3     1  UNL1        0.1582
     31 C          16.8032   69.7932   -6.4942 C.3     1  UNL1        0.1625
     32 C          17.4752   70.0114   -7.8526 C.3     1  UNL1        0.1686
     33 C          18.8126   70.7262   -7.6420 C.3     1  UNL1        0.1760
     34 O          15.5205   69.1924   -6.6869 O.3     1  UNL1       -0.3801
     35 O          16.6300   70.8125   -8.6804 O.3     1  UNL1       -0.3794
     36 O          18.5881   71.9626   -6.9616 O.3     1  UNL1       -0.3263
     37 H          15.5521   68.3303   -7.1238 H       1  UNL1        0.2105
     38 H          16.9942   70.9918   -9.5586 H       1  UNL1        0.2105
     39 C          16.2346   69.7678   -3.8277 C.2     1  UNL1        0.2231
     40 C          15.6445   69.5573   -2.4580 C.3     1  UNL1        0.0946
     41 N          16.0598   70.9425   -4.4645 N.am    1  UNL1       -0.2994
     42 O          16.8679   68.8793   -4.3586 O.2     1  UNL1       -0.2751
     43 H          15.5527   71.6527   -4.0408 H       1  UNL1        0.1496
     44 C          19.4628   71.0013   -8.9992 C.3     1  UNL1        0.1693
     45 O          18.4543   71.0478  -10.0107 O.3     1  UNL1       -0.3794
     46 H          18.7952   71.2189  -10.8992 H       1  UNL1        0.2105
@<TRIPOS>BOND
     1    29    30    1
     2    30    41    1
     3    30    31    1
     4    31    34    1
     5    31    32    1
     6    32    35    1
     7    32    33    1
     8    33    36    1
     9    33    44    1
    10    39    40    1
    11    39    42    2
    12    39    41   am
    13    41    43    1
    14    29    28    1
    15    34    37    1
    16    35    38    1
    17    29    36    1
    18    44    45    1
    19    45    46    1
    20    15     6    1
    21    15    16   ar
    22    16    21    2
    23    16    17   ar
    24    17    23    1
    25    17    18   ar
    26    18    19   ar
    27    19    20   ar
    28    15    20   ar
    29    18    22    2
    30     6     7    1
    31     6    11    1
    32     7     9    1
    33     7     8    1
    34     8    13    1
    35     9    10    1
    36     9    12    1
    37    10     5    1
    38    10    11    1
    39    12    14    1
    40     5     4    1
    41     4     1    1
    42     1     2    1
    43     1    24    1
    44     1     3    2
    45    24    25    1
    46    28    25    1
    47    25    26    1
    48    25    27    2
@<TRIPOS>MOLECULE
UD2
 46 48 0 0 0
SMALL
GASTEIGER

@<TRIPOS>ATOM
      1 P          21.7863   72.4265   -5.9174 P.3     1  UNL1        0.2189
      2 O          22.9790   73.3126   -6.5368 O.3     1  UNL1       -0.4371
      3 O          20.6059   73.2857   -5.6775 O.2     1  UNL1       -0.5170
      4 O          21.3960   71.2547   -6.9510 O.3     1  UNL1       -0.3112
      5 C          20.6019   71.4798   -8.1173 C.3     1  UNL1        0.1811
      6 C          17.5050   70.1245   -6.8890 C.3     1  UNL1        0.2383
      7 C          17.0800   71.1480   -7.9725 C.3     1  UNL1        0.1895
      8 O          15.8650   70.7442   -8.6069 O.3     1  UNL1       -0.3779
      9 C          18.2680   71.0848   -8.9635 C.3     1  UNL1        0.1713
     10 C          19.4242   70.5021   -8.1285 C.3     1  UNL1        0.1764
     11 O          18.9335   70.3127   -6.7918 O.3     1  UNL1       -0.3308
     12 O          17.9581   70.2227  -10.0596 O.3     1  UNL1       -0.3794
     13 H          15.5577   71.3528   -9.2923 H       1  UNL1        0.2106
     14 H          17.1996   70.5107  -10.5852 H       1  UNL1        0.2105
     15 N          16.8563   70.4268   -5.6112 N.ar    1  UNL1       -0.2551
     16 C          16.4381   69.4214   -4.8218 C.ar    1  UNL1        0.3323
     17 N          15.8387   69.6699   -3.6424 N.ar    1  UNL1       -0.2743
     18 C          15.6492   70.9404   -3.2317 C.ar    1  UNL1        0.2626
     19 C          16.0854   72.0084   -4.0522 C.ar    1  UNL1        0.0795
     20 C          16.6872   71.7300   -5.2277 C.ar    1  UNL1        0.0869
     21 O          16.6025   68.2709   -5.1793 O.2     1  UNL1       -0.2464
     22 O          15.1072   71.1667   -2.1642 O.2     1  UNL1       -0.2670
     23 H          15.5421   68.9333   -3.0860 H       1  UNL1        0.1734
     24 O          22.2682   71.7751   -4.5258 O.3     1  UNL1       -0.2703
     25 P          23.4503   72.1098   -3.4849 P.3     1  UNL1        0.2208
     26 O          24.2149   70.7496   -3.0863 O.3     1  UNL1       -0.4371
     27 O          24.4078   73.0480   -4.1105 O.2     1  UNL1       -0.5170
     28 O          22.8259   72.7824   -2.1619 O.3     1  UNL1       -0.2865
     29 C          23.1178   72.3203   -0.8418 C.3     1  UNL1        0.2611
     30 C          21.8104   72.0230   -0.1035 C.3     1  UNL1        0.1582
     31 C          21.0010   73.3171    0.0251 C.3     1  UNL1        0.1625
     32 C          21.8493   74.3676    0.7470 C.3     1  UNL1        0.1686
     33 C          23.1555   74.5746   -0.0243 C.3     1  UNL1        0.1760
     34 O          19.8123   73.0637    0.7775 O.3     1  UNL1       -0.3801
     35 O          22.1421   73.9174    2.0710 O.3     1  UNL1       -0.3794
     36 O          23.8444   73.3276   -0.1348 O.3     1  UNL1       -0.3263
     37 H          19.2501   73.8413    0.8976 H       1  UNL1        0.2105
     38 H          22.6787   74.5350    2.5875 H       1  UNL1        0.2105
     39 C          20.0995   71.4402   -1.7377 C.2     1  UNL1        0.2231
     40 C          19.3034   70.4243   -2.5141 C.3     1  UNL1        0.0946
     41 N          21.0363   71.0342   -0.8582 N.am    1  UNL1       -0.2994
     42 O          19.8975   72.6250   -1.9039 O.2     1  UNL1       -0.2751
     43 H          21.1974   70.0870   -0.7243 H       1  UNL1        0.1496
     44 C          24.0349   75.5791    0.7227 C.3     1  UNL1        0.1693
     45 O          25.2757   74.9609    1.0701 O.3     1  UNL1       -0.3794
     46 H          25.8847   75.5409    1.5474 H       1  UNL1        0.2105
@<TRIPOS>BOND
     1    29    30    1
     2    30    41    1
     3    30    31    1
     4    31    34    1
     5    31    32    1
     6    32    35    1
     7    32    33    1
     8    33    36    1
     9    33    44    1
    10    39    40    1
    11    39    42    2
    12    39    41   am
    13    41    43    1
    14    29    28    1
    15    34    37    1
    16    35    38    1
    17    29    36    1
    18    44    45    1
    19    45    46    1
    20    15     6    1
    21    15    16   ar
    22    16    21    2
    23    16    17   ar
    24    17    23    1
    25    17    18   ar
    26    18    19   ar
    27    19    20   ar
    28    15    20   ar
    29    18    22    2
    30     6     7    1
    31     6    11    1
    32     7     9    1
    33     7     8    1
    34     8    13    1
    35     9    10    1
    36     9    12    1
    37    10     5    1
    38    10    11    1
    39    12    14    1
    40     5     4    1
    41     4     1    1
    42     1     2    1
    43     1    24    1
    44     1     3    2
    45    24    25    1
    46    28    25    1
    47    25    26    1
    48    25    27    2
@<TRIPOS>MOLECULE
UD2
 46 48 0 0 0
SMALL
GASTEIGER

@<TRIPOS>ATOM
      1 P          22.6937   72.0736   -3.8852 P.3     1  UNL1        0.2189
      2 O          23.1632   72.4810   -5.3701 O.3     1  UNL1       -0.4371
      3 O          23.6625   71.1172   -3.3058 O.2     1  UNL1       -0.5170
      4 O          22.6249   73.3926   -2.9635 O.3     1  UNL1       -0.3112
      5 C          22.0004   73.4111   -1.6786 C.3     1  UNL1        0.1811
      6 C          23.9015   71.8926    0.9702 C.3     1  UNL1        0.2383
      7 C          22.5007   72.1371    1.5866 C.3     1  UNL1        0.1895
      8 O          22.1962   71.1462    2.5701 O.3     1  UNL1       -0.3779
      9 C          21.5739   71.9954    0.3544 C.3     1  UNL1        0.1713
     10 C          22.5079   72.2297   -0.8482 C.3     1  UNL1        0.1764
     11 O          23.8129   72.5246   -0.3253 O.3     1  UNL1       -0.3308
     12 O          21.0101   70.6839    0.3024 O.3     1  UNL1       -0.3794
     13 H          21.3301   71.2567    2.9851 H       1  UNL1        0.2106
     14 H          20.4597   70.4609    1.0652 H       1  UNL1        0.2105
     15 N          24.9410   72.5267    1.7841 N.ar    1  UNL1       -0.2551
     16 C          25.8314   71.7626    2.4415 C.ar    1  UNL1        0.3323
     17 N          26.7972   72.3184    3.1968 N.ar    1  UNL1       -0.2743
     18 C          26.8872   73.6597    3.3043 C.ar    1  UNL1        0.2626
     19 C          25.9572   74.4761    2.6169 C.ar    1  UNL1        0.0795
     20 C          25.0020   73.8920    1.8633 C.ar    1  UNL1        0.0869
     21 O          25.7623   70.5519    2.3535 O.2     1  UNL1       -0.2464
     22 O          27.7611   74.1640    3.9873 O.2     1  UNL1       -0.2670
     23 H          27.4303   71.7528    3.6652 H       1  UNL1        0.1734
     24 O          21.2374   71.3894   -3.9511 O.3     1  UNL1       -0.2703
     25 P          19.7359   71.9346   -3.7483 P.3     1  UNL1        0.2208
     26 O          19.2648   71.6571   -2.2335 O.3     1  UNL1       -0.4371
     27 O          19.6982   73.3887   -4.0174 O.2     1  UNL1       -0.5170
     28 O          18.7469   71.1741   -4.7662 O.3     1  UNL1       -0.2865
     29 C          17.8797   71.8625   -5.6692 C.3     1  UNL1        0.2611
     30 C          16.5566   71.1021   -5.7871 C.3     1  UNL1        0.1582
     31 C          16.8269   69.7118   -6.3706 C.3     1  UNL1        0.1625
     32 C          17.5306   69.8650   -7.7217 C.3     1  UNL1        0.1686
     33 C          18.8166   70.6733   -7.5292 C.3     1  UNL1        0.1760
     34 O          15.5884   69.0216   -6.5527 O.3     1  UNL1       -0.3801
     35 O          16.6690   70.5475   -8.6344 O.3     1  UNL1       -0.3794
     36 O          18.4980   71.9425   -6.9551 O.3     1  UNL1       -0.3263
     37 H          15.6846   68.1319   -6.9192 H       1  UNL1        0.2105
     38 H          17.0516   70.6805   -9.5130 H       1  UNL1        0.2105
     39 C          16.1955   69.8708   -3.7155 C.2     1  UNL1        0.2231
     40 C          15.5726   69.7311   -2.3513 C.3     1  UNL1        0.0946
     41 N          15.9501   70.9668   -4.4603 N.am    1  UNL1       -0.2994
     42 O          16.9188   68.9962   -4.1448 O.2     1  UNL1       -0.2751
     43 H          15.3711   71.6658   -4.1179 H       1  UNL1        0.1496
     44 C          19.4952   70.8819   -8.8843 C.3     1  UNL1        0.1693
     45 O          20.6001   71.7754   -8.7320 O.3     1  UNL1       -0.3794
     46 H          21.0784   71.9539   -9.5532 H       1  UNL1        0.2105
@<TRIPOS>BOND
     1    29    30    1
     2    30    41    1
     3    30    31    1
     4    31    34    1
     5    31    32    1
     6    32    35    1
     7    32    33    1
     8    33    36    1
     9    33    44    1
    10    39    40    1
    11    39    42    2
    12    39    41   am
    13    41    43    1
    14    29    28    1
    15    34    37    1
    16    35    38    1
    17    29    36    1
    18    44    45    1
    19    45    46    1
    20    15     6    1
    21    15    16   ar
    22    16    21    2
    23    16    17   ar
    24    17    23    1
    25    17    18   ar
    26    18    19   ar
    27    19    20   ar
    28    15    20   ar
    29    18    22    2
    30     6     7    1
    31     6    11    1
    32     7     9    1
    33     7     8    1
    34     8    13    1
    35     9    10    1
    36     9    12    1
    37    10     5    1
    38    10    11    1
    39    12    14    1
    40     5     4    1
    41     4     1    1
    42     1     2    1
    43     1    24    1
    44     1     3    2
    45    24    25    1
    46    28    25    1
    47    25    26    1
    48    25    27    2
@<TRIPOS>MOLECULE
UD2
 46 48 0 0 0
SMALL
GASTEIGER

@<TRIPOS>ATOM
      1 P          23.0827   71.8132   -3.2477 P.3     1  UNL1        0.2189
      2 O          24.3629   70.8500   -3.0906 O.3     1  UNL1       -0.4371
      3 O          23.4229   73.1695   -2.7644 O.2     1  UNL1       -0.5170
      4 O          22.6545   71.8877   -4.7984 O.3     1  UNL1       -0.3112
      5 C          22.7490   73.0838   -5.5742 C.3     1  UNL1        0.1811
      6 C          19.5707   72.1819   -6.9960 C.3     1  UNL1        0.2383
      7 C          19.3301   73.5720   -6.3542 C.3     1  UNL1        0.1895
      8 O          18.3347   74.3011   -7.0748 O.3     1  UNL1       -0.3779
      9 C          20.7185   74.2418   -6.4992 C.3     1  UNL1        0.1713
     10 C          21.6900   73.0597   -6.6792 C.3     1  UNL1        0.1764
     11 O          20.9165   71.8527   -6.5885 O.3     1  UNL1       -0.3308
     12 O          20.7453   75.0910   -7.6476 O.3     1  UNL1       -0.3794
     13 H          18.1484   75.1773   -6.7114 H       1  UNL1        0.2106
     14 H          20.1106   75.8194   -7.6141 H       1  UNL1        0.2105
     15 N          18.6180   71.2003   -6.4726 N.ar    1  UNL1       -0.2551
     16 C          18.5991   70.9264   -5.1560 C.ar    1  UNL1        0.3323
     17 N          17.7344   70.0287   -4.6475 N.ar    1  UNL1       -0.2743
     18 C          16.8671   69.3877   -5.4571 C.ar    1  UNL1        0.2626
     19 C          16.8754   69.6670   -6.8449 C.ar    1  UNL1        0.0795
     20 C          17.7502   70.5748   -7.3268 C.ar    1  UNL1        0.0869
     21 O          19.3753   71.4970   -4.4141 O.2     1  UNL1       -0.2464
     22 O          16.0837   68.5753   -4.9980 O.2     1  UNL1       -0.2670
     23 H          17.7349   69.8422   -3.6960 H       1  UNL1        0.1734
     24 O          21.8590   71.2256   -2.3814 O.3     1  UNL1       -0.2703
     25 P          21.1104   71.7021   -1.0377 P.3     1  UNL1        0.2208
     26 O          20.0917   72.8995   -1.3873 O.3     1  UNL1       -0.4371
     27 O          20.3568   70.5661   -0.4632 O.2     1  UNL1       -0.5170
     28 O          22.2001   72.2183    0.0294 O.3     1  UNL1       -0.2865
     29 C          22.0278   72.0904    1.4419 C.3     1  UNL1        0.2611
     30 C          21.8917   73.4803    2.0683 C.3     1  UNL1        0.1582
     31 C          23.1829   74.2683    1.8268 C.3     1  UNL1        0.1625
     32 C          24.3631   73.4835    2.4060 C.3     1  UNL1        0.1686
     33 C          24.4039   72.0931    1.7664 C.3     1  UNL1        0.1760
     34 O          23.0930   75.5408    2.4715 O.3     1  UNL1       -0.3801
     35 O          24.2033   73.3548    3.8199 O.3     1  UNL1       -0.3794
     36 O          23.1624   71.4258    2.0015 O.3     1  UNL1       -0.3263
     37 H          23.8778   76.0946    2.3591 H       1  UNL1        0.2105
     38 H          24.9166   72.8664    4.2542 H       1  UNL1        0.2105
     39 C          19.5948   74.2925    2.1130 C.2     1  UNL1        0.2231
     40 C          18.4360   75.0182    1.4812 C.3     1  UNL1        0.0946
     41 N          20.7649   74.1861    1.4530 N.am    1  UNL1       -0.2994
     42 O          19.4752   73.8032    3.2168 O.2     1  UNL1       -0.2751
     43 H          20.8606   74.5763    0.5701 H       1  UNL1        0.1496
     44 C          25.5445   71.2815    2.3833 C.3     1  UNL1        0.1693
     45 O          25.0828   69.9632    2.6854 O.3     1  UNL1       -0.3794
     46 H          25.7551   69.3913    3.0805 H       1  UNL1        0.2105
@<TRIPOS>BOND
     1    29    30    1
     2    30    41    1
     3    30    31    1
     4    31    34    1
     5    31    32    1
     6    32    35    1
     7    32    33    1
     8    33    36    1
     9    33    44    1
    10    39    40    1
    11    39    42    2
    12    39    41   am
    13    41    43    1
    14    29    28    1
    15    34    37    1
    16    35    38    1
    17    29    36    1
    18    44    45    1
    19    45    46    1
    20    15     6    1
    21    15    16   ar
    22    16    21    2
    23    16    17   ar
    24    17    23    1
    25    17    18   ar
    26    18    19   ar
    27    19    20   ar
    28    15    20   ar
    29    18    22    2
    30     6     7    1
    31     6    11    1
    32     7     9    1
    33     7     8    1
    34     8    13    1
    35     9    10    1
    36     9    12    1
    37    10     5    1
    38    10    11    1
    39    12    14    1
    40     5     4    1
    41     4     1    1
    42     1     2    1
    43     1    24    1
    44     1     3    2
    45    24    25    1
    46    28    25    1
    47    25    26    1
    48    25    27    2
@<TRIPOS>MOLECULE
UD2
 46 48 0 0 0
SMALL
GASTEIGER

@<TRIPOS>ATOM
      1 P          20.3402   72.6880   -2.4302 P.3     1  UNL1        0.2189
      2 O          21.9241   72.6056   -2.1548 O.3     1  UNL1       -0.4371
      3 O          20.0599   73.7916   -3.3749 O.2     1  UNL1       -0.5170
      4 O          19.8327   71.2971   -3.0639 O.3     1  UNL1       -0.3112
      5 C          18.7687   70.5284   -2.4995 C.3     1  UNL1        0.1811
      6 C          17.0621   70.4648   -5.6649 C.3     1  UNL1        0.2383
      7 C          16.9623   69.0103   -5.1391 C.3     1  UNL1        0.1895
      8 O          15.7610   68.3847   -5.5943 O.3     1  UNL1       -0.3779
      9 C          16.9288   69.2204   -3.6054 C.3     1  UNL1        0.1713
     10 C          17.5373   70.6213   -3.4039 C.3     1  UNL1        0.1764
     11 O          17.9181   71.1127   -4.6989 O.3     1  UNL1       -0.3308
     12 O          15.5834   69.1854   -3.1264 O.3     1  UNL1       -0.3794
     13 H          15.6532   67.4727   -5.2919 H       1  UNL1        0.2106
     14 H          15.1318   68.3447   -3.2808 H       1  UNL1        0.2105
     15 N          17.6728   70.4914   -6.9958 N.ar    1  UNL1       -0.2551
     16 C          16.8904   70.4494   -8.0890 C.ar    1  UNL1        0.3323
     17 N          17.4245   70.4722   -9.3245 N.ar    1  UNL1       -0.2743
     18 C          18.7618   70.5400   -9.4846 C.ar    1  UNL1        0.2626
     19 C          19.5972   70.5859   -8.3427 C.ar    1  UNL1        0.0795
     20 C          19.0344   70.5659   -7.1162 C.ar    1  UNL1        0.0869
     21 O          15.6830   70.3883   -7.9596 O.2     1  UNL1       -0.2464
     22 O          19.2464   70.5612  -10.6023 O.2     1  UNL1       -0.2670
     23 H          16.8460   70.4400  -10.1020 H       1  UNL1        0.1734
     24 O          19.5674   72.9588   -1.0436 O.3     1  UNL1       -0.2703
     25 P          19.5886   74.1565    0.0325 P.3     1  UNL1        0.2208
     26 O          20.0381   75.5219   -0.6937 O.3     1  UNL1       -0.4371
     27 O          18.2366   74.3268    0.6083 O.2     1  UNL1       -0.5170
     28 O          20.6321   73.8042    1.2071 O.3     1  UNL1       -0.2865
     29 C          20.3510   72.8582    2.2402 C.3     1  UNL1        0.2611
     30 C          20.2004   73.5899    3.5762 C.3     1  UNL1        0.1582
     31 C          21.5240   74.2783    3.9234 C.3     1  UNL1        0.1625
     32 C          22.6388   73.2293    3.9586 C.3     1  UNL1        0.1686
     33 C          22.6954   72.5114    2.6075 C.3     1  UNL1        0.1760
     34 O          21.4153   74.9028    5.2046 O.3     1  UNL1       -0.3801
     35 O          22.3700   72.2811    4.9930 O.3     1  UNL1       -0.3794
     36 O          21.4246   71.9194    2.3309 O.3     1  UNL1       -0.3263
     37 H          22.2190   75.3597    5.4884 H       1  UNL1        0.2105
     38 H          23.0370   71.5849    5.0723 H       1  UNL1        0.2105
     39 C          18.2333   74.7282    4.4551 C.2     1  UNL1        0.2231
     40 C          17.1428   75.7612    4.3436 C.3     1  UNL1        0.0946
     41 N          19.1398   74.5948    3.4669 N.am    1  UNL1       -0.2994
     42 O          18.2961   74.0155    5.4350 O.2     1  UNL1       -0.2751
     43 H          19.0894   75.1637    2.6828 H       1  UNL1        0.1496
     44 C          23.7671   71.4207    2.6543 C.3     1  UNL1        0.1693
     45 O          24.7464   71.6704    1.6438 O.3     1  UNL1       -0.3794
     46 H          25.4583   71.0166    1.6151 H       1  UNL1        0.2105
@<TRIPOS>BOND
     1    29    30    1
     2    30    41    1
     3    30    31    1
     4    31    34    1
     5    31    32    1
     6    32    35    1
     7    32    33    1
     8    33    36    1
     9    33    44    1
    10    39    40    1
    11    39    42    2
    12    39    41   am
    13    41    43    1
    14    29    28    1
    15    34    37    1
    16    35    38    1
    17    29    36    1
    18    44    45    1
    19    45    46    1
    20    15     6    1
    21    15    16   ar
    22    16    21    2
    23    16    17   ar
    24    17    23    1
    25    17    18   ar
    26    18    19   ar
    27    19    20   ar
    28    15    20   ar
    29    18    22    2
    30     6     7    1
    31     6    11    1
    32     7     9    1
    33     7     8    1
    34     8    13    1
    35     9    10    1
    36     9    12    1
    37    10     5    1
    38    10    11    1
    39    12    14    1
    40     5     4    1
    41     4     1    1
    42     1     2    1
    43     1    24    1
    44     1     3    2
    45    24    25    1
    46    28    25    1
    47    25    26    1
    48    25    27    2
@<TRIPOS>MOLECULE
UD2
 46 48 0 0 0
SMALL
GASTEIGER

@<TRIPOS>ATOM
      1 P          20.6181   71.2551   -0.8563 P.3     1  UNL1        0.2189
      2 O          20.4714   72.8432   -0.6377 O.3     1  UNL1       -0.4371
      3 O          20.8896   70.6008    0.4425 O.2     1  UNL1       -0.5170
      4 O          19.2517   70.6705   -1.4766 O.3     1  UNL1       -0.3112
      5 C          19.2124   69.8917   -2.6738 C.3     1  UNL1        0.1811
      6 C          17.3493   70.3566   -5.7151 C.3     1  UNL1        0.2383
      7 C          17.0122   68.9112   -5.2687 C.3     1  UNL1        0.1895
      8 O          15.6926   68.5458   -5.6770 O.3     1  UNL1       -0.3779
      9 C          17.1038   69.0173   -3.7267 C.3     1  UNL1        0.1713
     10 C          17.9708   70.2679   -3.4861 C.3     1  UNL1        0.1764
     11 O          18.3628   70.7708   -4.7733 O.3     1  UNL1       -0.3308
     12 O          15.8040   69.1929   -3.1606 O.3     1  UNL1       -0.3794
     13 H          15.4354   67.6497   -5.4213 H       1  UNL1        0.2106
     14 H          15.1971   68.4603   -3.3325 H       1  UNL1        0.2105
     15 N          17.8791   70.3644   -7.0805 N.ar    1  UNL1       -0.2551
     16 C          17.0329   70.4383   -8.1232 C.ar    1  UNL1        0.3323
     17 N          17.4920   70.4472   -9.3887 N.ar    1  UNL1       -0.2743
     18 C          18.8172   70.3833   -9.6304 C.ar    1  UNL1        0.2626
     19 C          19.7193   70.3061   -8.5422 C.ar    1  UNL1        0.0795
     20 C          19.2315   70.3033   -7.2838 C.ar    1  UNL1        0.0869
     21 O          15.8356   70.4967   -7.9202 O.2     1  UNL1       -0.2464
     22 O          19.2340   70.3916  -10.7753 O.2     1  UNL1       -0.2670
     23 H          16.8681   70.4997  -10.1290 H       1  UNL1        0.1734
     24 O          21.8349   70.9628   -1.8698 O.3     1  UNL1       -0.2703
     25 P          23.1687   71.7680   -2.2768 P.3     1  UNL1        0.2208
     26 O          23.8495   72.3819   -0.9527 O.3     1  UNL1       -0.4371
     27 O          24.1191   70.8467   -2.9375 O.2     1  UNL1       -0.5170
     28 O          22.7873   72.9619   -3.2876 O.3     1  UNL1       -0.2865
     29 C          23.7281   73.5506   -4.1874 C.3     1  UNL1        0.2611
     30 C          23.6337   75.0758   -4.1000 C.3     1  UNL1        0.1582
     31 C          22.2335   75.5178   -4.5364 C.3     1  UNL1        0.1625
     32 C          21.9642   74.9997   -5.9518 C.3     1  UNL1        0.1686
     33 C          22.1230   73.4770   -5.9677 C.3     1  UNL1        0.1760
     34 O          22.1596   76.9453   -4.5282 O.3     1  UNL1       -0.3801
     35 O          22.8967   75.5872   -6.8610 O.3     1  UNL1       -0.3794
     36 O          23.4362   73.1320   -5.5222 O.3     1  UNL1       -0.3263
     37 H          21.2983   77.2957   -4.7941 H       1  UNL1        0.2105
     38 H          22.7849   75.3024   -7.7788 H       1  UNL1        0.2105
     39 C          22.8357   75.6803   -1.8784 C.2     1  UNL1        0.2231
     40 C          23.0817   76.1189   -0.4587 C.3     1  UNL1        0.0946
     41 N          23.8738   75.5026   -2.7192 N.am    1  UNL1       -0.2994
     42 O          21.7023   75.4868   -2.2660 O.2     1  UNL1       -0.2751
     43 H          24.7800   75.6582   -2.4101 H       1  UNL1        0.1496
     44 C          21.9141   72.9576   -7.3914 C.3     1  UNL1        0.1693
     45 O          23.1158   73.1336   -8.1446 O.3     1  UNL1       -0.3794
     46 H          23.0561   72.8256   -9.0592 H       1  UNL1        0.2105
@<TRIPOS>BOND
     1    29    30    1
     2    30    41    1
     3    30    31    1
     4    31    34    1
     5    31    32    1
     6    32    35    1
     7    32    33    1
     8    33    36    1
     9    33    44    1
    10    39    40    1
    11    39    42    2
    12    39    41   am
    13    41    43    1
    14    29    28    1
    15    34    37    1
    16    35    38    1
    17    29    36    1
    18    44    45    1
    19    45    46    1
    20    15     6    1
    21    15    16   ar
    22    16    21    2
    23    16    17   ar
    24    17    23    1
    25    17    18   ar
    26    18    19   ar
    27    19    20   ar
    28    15    20   ar
    29    18    22    2
    30     6     7    1
    31     6    11    1
    32     7     9    1
    33     7     8    1
    34     8    13    1
    35     9    10    1
    36     9    12    1
    37    10     5    1
    38    10    11    1
    39    12    14    1
    40     5     4    1
    41     4     1    1
    42     1     2    1
    43     1    24    1
    44     1     3    2
    45    24    25    1
    46    28    25    1
    47    25    26    1
    48    25    27    2
@<TRIPOS>MOLECULE
UD2
 46 48 0 0 0
SMALL
GASTEIGER

@<TRIPOS>ATOM
      1 P          17.7092   73.6564   -1.2052 P.3     1  UNL1        0.2189
      2 O          17.7325   75.2290   -1.5482 O.3     1  UNL1       -0.4371
      3 O          16.3451   73.2615   -0.7903 O.2     1  UNL1       -0.5170
      4 O          18.1375   72.8161   -2.5107 O.3     1  UNL1       -0.3112
      5 C          17.9747   71.4002   -2.6115 C.3     1  UNL1        0.1811
      6 C          16.7160   70.5386   -5.8688 C.3     1  UNL1        0.2383
      7 C          16.8799   69.1794   -5.1423 C.3     1  UNL1        0.1895
      8 O          15.9109   68.2352   -5.6021 O.3     1  UNL1       -0.3779
      9 C          16.6173   69.5659   -3.6661 C.3     1  UNL1        0.1713
     10 C          16.8707   71.0850   -3.6238 C.3     1  UNL1        0.1764
     11 O          17.2848   71.4864   -4.9395 O.3     1  UNL1       -0.3308
     12 O          15.2660   69.2736   -3.3067 O.3     1  UNL1       -0.3794
     13 H          15.9732   67.3689   -5.1774 H       1  UNL1        0.2106
     14 H          15.0343   68.3374   -3.3725 H       1  UNL1        0.2105
     15 N          17.4603   70.5422   -7.1302 N.ar    1  UNL1       -0.2551
     16 C          16.7927   70.5461   -8.2978 C.ar    1  UNL1        0.3323
     17 N          17.4509   70.5493   -9.4721 N.ar    1  UNL1       -0.2743
     18 C          18.7993   70.5504   -9.4944 C.ar    1  UNL1        0.2626
     19 C          19.5147   70.5474   -8.2729 C.ar    1  UNL1        0.0795
     20 C          18.8291   70.5485   -7.1104 C.ar    1  UNL1        0.0869
     21 O          15.5769   70.5453   -8.2928 O.2     1  UNL1       -0.2464
     22 O          19.3962   70.5537  -10.5566 O.2     1  UNL1       -0.2670
     23 H          16.9541   70.5508  -10.3048 H       1  UNL1        0.1734
     24 O          18.7435   73.3523   -0.0090 O.3     1  UNL1       -0.2703
     25 P          20.2739   73.7635    0.2772 P.3     1  UNL1        0.2208
     26 O          20.3197   75.2292    0.9431 O.3     1  UNL1       -0.4371
     27 O          20.8838   72.7830    1.2018 O.2     1  UNL1       -0.5170
     28 O          21.0939   73.7773   -1.1085 O.3     1  UNL1       -0.2865
     29 C          21.8481   72.6583   -1.5778 C.3     1  UNL1        0.2611
     30 C          23.3363   73.0158   -1.5949 C.3     1  UNL1        0.1582
     31 C          23.5634   74.1728   -2.5727 C.3     1  UNL1        0.1625
     32 C          23.0481   73.7666   -3.9561 C.3     1  UNL1        0.1686
     33 C          21.5707   73.3801   -3.8480 C.3     1  UNL1        0.1760
     34 O          24.9605   74.4648   -2.6502 O.3     1  UNL1       -0.3801
     35 O          23.8001   72.6512   -4.4373 O.3     1  UNL1       -0.3794
     36 O          21.4253   72.3204   -2.9005 O.3     1  UNL1       -0.3263
     37 H          25.1776   75.1898   -3.2523 H       1  UNL1        0.2105
     38 H          23.5265   72.3391   -5.3112 H       1  UNL1        0.2105
     39 C          24.1956   72.4947    0.6249 C.2     1  UNL1        0.2231
     40 C          24.6294   72.9097    2.0063 C.3     1  UNL1        0.0946
     41 N          23.7578   73.4202   -0.2513 N.am    1  UNL1       -0.2994
     42 O          24.2402   71.3264    0.3003 O.2     1  UNL1       -0.2751
     43 H          23.7211   74.3542    0.0081 H       1  UNL1        0.1496
     44 C          21.0639   72.9158   -5.2147 C.3     1  UNL1        0.1693
     45 O          21.9932   71.9878   -5.7781 O.3     1  UNL1       -0.3794
     46 H          21.7356   71.6508   -6.6471 H       1  UNL1        0.2105
@<TRIPOS>BOND
     1    29    30    1
     2    30    41    1
     3    30    31    1
     4    31    34    1
     5    31    32    1
     6    32    35    1
     7    32    33    1
     8    33    36    1
     9    33    44    1
    10    39    40    1
    11    39    42    2
    12    39    41   am
    13    41    43    1
    14    29    28    1
    15    34    37    1
    16    35    38    1
    17    29    36    1
    18    44    45    1
    19    45    46    1
    20    15     6    1
    21    15    16   ar
    22    16    21    2
    23    16    17   ar
    24    17    23    1
    25    17    18   ar
    26    18    19   ar
    27    19    20   ar
    28    15    20   ar
    29    18    22    2
    30     6     7    1
    31     6    11    1
    32     7     9    1
    33     7     8    1
    34     8    13    1
    35     9    10    1
    36     9    12    1
    37    10     5    1
    38    10    11    1
    39    12    14    1
    40     5     4    1
    41     4     1    1
    42     1     2    1
    43     1    24    1
    44     1     3    2
    45    24    25    1
    46    28    25    1
    47    25    26    1
    48    25    27    2
@<TRIPOS>MOLECULE
UD2
 46 48 0 0 0
SMALL
GASTEIGER

@<TRIPOS>ATOM
      1 P          23.1279   71.7082   -3.2434 P.3     1  UNL1        0.2189
      2 O          21.8113   71.2004   -2.4688 O.3     1  UNL1       -0.4371
      3 O          24.2154   70.7205   -3.0689 O.2     1  UNL1       -0.5170
      4 O          22.7981   71.8721   -4.8113 O.3     1  UNL1       -0.3112
      5 C          22.7693   73.1391   -5.4711 C.3     1  UNL1        0.1811
      6 C          19.6635   72.1782   -7.0097 C.3     1  UNL1        0.2383
      7 C          19.3735   73.5639   -6.3788 C.3     1  UNL1        0.1895
      8 O          18.3925   74.2743   -7.1369 O.3     1  UNL1       -0.3779
      9 C          20.7539   74.2591   -6.4725 C.3     1  UNL1        0.1713
     10 C          21.7529   73.0950   -6.6148 C.3     1  UNL1        0.1764
     11 O          20.9989   71.8740   -6.5519 O.3     1  UNL1       -0.3308
     12 O          20.8079   75.1083   -7.6200 O.3     1  UNL1       -0.3794
     13 H          18.1767   75.1471   -6.7815 H       1  UNL1        0.2106
     14 H          20.1590   75.8248   -7.6109 H       1  UNL1        0.2105
     15 N          18.7101   71.1794   -6.5213 N.ar    1  UNL1       -0.2551
     16 C          17.8186   70.6380   -7.3703 C.ar    1  UNL1        0.3323
     17 N          16.9307   69.7181   -6.9488 N.ar    1  UNL1       -0.2743
     18 C          16.9239   69.3221   -5.6597 C.ar    1  UNL1        0.2626
     19 C          17.8575   69.8830   -4.7553 C.ar    1  UNL1        0.0795
     20 C          18.7390   70.8002   -5.2062 C.ar    1  UNL1        0.0869
     21 O          17.8134   70.9854   -8.5355 O.2     1  UNL1       -0.2464
     22 O          16.1211   68.4893   -5.2770 O.2     1  UNL1       -0.2670
     23 H          16.2940   69.3387   -7.5739 H       1  UNL1        0.1734
     24 O          23.5906   73.1285   -2.6418 O.3     1  UNL1       -0.2703
     25 P          22.8463   74.2818   -1.7998 P.3     1  UNL1        0.2208
     26 O          23.6953   75.6471   -1.8940 O.3     1  UNL1       -0.4371
     27 O          21.4934   74.5035   -2.3554 O.2     1  UNL1       -0.5170
     28 O          22.7268   73.8290   -0.2592 O.3     1  UNL1       -0.2865
     29 C          23.0486   72.5122    0.1924 C.3     1  UNL1        0.2611
     30 C          21.8764   71.9475    0.9985 C.3     1  UNL1        0.1582
     31 C          21.6510   72.8216    2.2361 C.3     1  UNL1        0.1625
     32 C          22.9451   72.8747    3.0529 C.3     1  UNL1        0.1686
     33 C          24.0763   73.4038    2.1673 C.3     1  UNL1        0.1760
     34 O          20.6059   72.2597    3.0332 O.3     1  UNL1       -0.3801
     35 O          23.2729   71.5629    3.5143 O.3     1  UNL1       -0.3794
     36 O          24.2130   72.5640    1.0193 O.3     1  UNL1       -0.3263
     37 H          20.4090   72.7636    3.8348 H       1  UNL1        0.2105
     38 H          24.0841   71.5213    4.0398 H       1  UNL1        0.2105
     39 C          19.8232   72.9991    0.2134 C.2     1  UNL1        0.2231
     40 C          18.5802   73.0019   -0.6373 C.3     1  UNL1        0.0946
     41 N          20.6674   71.9495    0.1710 N.am    1  UNL1       -0.2994
     42 O          20.0651   73.9421    0.9375 O.2     1  UNL1       -0.2751
     43 H          20.4739   71.1948   -0.4071 H       1  UNL1        0.1496
     44 C          25.3857   73.4037    2.9585 C.3     1  UNL1        0.1693
     45 O          26.0687   72.1658    2.7504 O.3     1  UNL1       -0.3794
     46 H          26.9093   72.0954    3.2232 H       1  UNL1        0.2105
@<TRIPOS>BOND
     1    29    30    1
     2    30    41    1
     3    30    31    1
     4    31    34    1
     5    31    32    1
     6    32    35    1
     7    32    33    1
     8    33    36    1
     9    33    44    1
    10    39    40    1
    11    39    42    2
    12    39    41   am
    13    41    43    1
    14    29    28    1
    15    34    37    1
    16    35    38    1
    17    29    36    1
    18    44    45    1
    19    45    46    1
    20    15     6    1
    21    15    16   ar
    22    16    21    2
    23    16    17   ar
    24    17    23    1
    25    17    18   ar
    26    18    19   ar
    27    19    20   ar
    28    15    20   ar
    29    18    22    2
    30     6     7    1
    31     6    11    1
    32     7     9    1
    33     7     8    1
    34     8    13    1
    35     9    10    1
    36     9    12    1
    37    10     5    1
    38    10    11    1
    39    12    14    1
    40     5     4    1
    41     4     1    1
    42     1     2    1
    43     1    24    1
    44     1     3    2
    45    24    25    1
    46    28    25    1
    47    25    26    1
    48    25    27    2
@<TRIPOS>MOLECULE
UD2
 46 48 0 0 0
SMALL
GASTEIGER

@<TRIPOS>ATOM
      1 P          23.4351   72.0987   -3.2769 P.3     1  UNL1        0.2189
      2 O          24.1681   70.7080   -2.9306 O.3     1  UNL1       -0.4371
      3 O          24.0661   72.7062   -4.4692 O.2     1  UNL1       -0.5170
      4 O          21.8766   71.8239   -3.5757 O.3     1  UNL1       -0.3112
      5 C          21.0676   70.9725   -2.7619 C.3     1  UNL1        0.1811
      6 C          18.3694   70.7720   -5.1316 C.3     1  UNL1        0.2383
      7 C          18.3867   69.3839   -4.4424 C.3     1  UNL1        0.1895
      8 O          17.0729   68.8244   -4.3891 O.3     1  UNL1       -0.3779
      9 C          18.8968   69.7321   -3.0225 C.3     1  UNL1        0.1713
     10 C          19.6054   71.0887   -3.1991 C.3     1  UNL1        0.1764
     11 O          19.5376   71.4284   -4.5932 O.3     1  UNL1       -0.3308
     12 O          17.8006   69.8544   -2.1147 O.3     1  UNL1       -0.3794
     13 H          17.0320   67.9556   -3.9671 H       1  UNL1        0.2106
     14 H          17.2829   69.0447   -2.0106 H       1  UNL1        0.2105
     15 N          18.4819   70.6277   -6.5847 N.ar    1  UNL1       -0.2551
     16 C          17.3693   70.5055   -7.3304 C.ar    1  UNL1        0.3323
     17 N          17.4429   70.3713   -8.6679 N.ar    1  UNL1       -0.2743
     18 C          18.6425   70.3594   -9.2838 C.ar    1  UNL1        0.2626
     19 C          19.8218   70.4882   -8.5112 C.ar    1  UNL1        0.0795
     20 C          19.7182   70.6255   -7.1726 C.ar    1  UNL1        0.0869
     21 O          16.2808   70.5148   -6.7885 O.2     1  UNL1       -0.2464
     22 O          18.7105   70.2384  -10.4942 O.2     1  UNL1       -0.2670
     23 H          16.6309   70.2831   -9.1904 H       1  UNL1        0.1734
     24 O          23.5718   73.1038   -2.0261 O.3     1  UNL1       -0.2703
     25 P          22.8223   74.4628   -1.5969 P.3     1  UNL1        0.2208
     26 O          23.9142   75.5591   -1.1499 O.3     1  UNL1       -0.4371
     27 O          22.0449   74.9811   -2.7438 O.2     1  UNL1       -0.5170
     28 O          21.8284   74.1619   -0.3664 O.3     1  UNL1       -0.2865
     29 C          21.9222   74.8322    0.8919 C.3     1  UNL1        0.2611
     30 C          21.9034   73.8012    2.0230 C.3     1  UNL1        0.1582
     31 C          20.5691   73.0494    1.9948 C.3     1  UNL1        0.1625
     32 C          19.4239   74.0591    2.1106 C.3     1  UNL1        0.1686
     33 C          19.5383   75.0804    0.9758 C.3     1  UNL1        0.1760
     34 O          20.5129   72.1356    3.0926 O.3     1  UNL1       -0.3801
     35 O          19.5052   74.7313    3.3687 O.3     1  UNL1       -0.3794
     36 O          20.8136   75.7217    1.0410 O.3     1  UNL1       -0.3263
     37 H          19.6936   71.6238    3.1362 H       1  UNL1        0.2105
     38 H          18.8090   75.3880    3.5103 H       1  UNL1        0.2105
     39 C          22.7993   71.7060    1.1598 C.2     1  UNL1        0.2231
     40 C          23.9305   70.7300    0.9694 C.3     1  UNL1        0.0946
     41 N          23.0042   72.8522    1.8384 N.am    1  UNL1       -0.2994
     42 O          21.7027   71.4607    0.7022 O.2     1  UNL1       -0.2751
     43 H          23.8805   73.0483    2.2053 H       1  UNL1        0.1496
     44 C          18.4324   76.1277    1.1191 C.3     1  UNL1        0.1693
     45 O          18.9745   77.4291    0.8844 O.3     1  UNL1       -0.3794
     46 H          18.3281   78.1443    0.9589 H       1  UNL1        0.2105
@<TRIPOS>BOND
     1    29    30    1
     2    30    41    1
     3    30    31    1
     4    31    34    1
     5    31    32    1
     6    32    35    1
     7    32    33    1
     8    33    36    1
     9    33    44    1
    10    39    40    1
    11    39    42    2
    12    39    41   am
    13    41    43    1
    14    29    28    1
    15    34    37    1
    16    35    38    1
    17    29    36    1
    18    44    45    1
    19    45    46    1
    20    15     6    1
    21    15    16   ar
    22    16    21    2
    23    16    17   ar
    24    17    23    1
    25    17    18   ar
    26    18    19   ar
    27    19    20   ar
    28    15    20   ar
    29    18    22    2
    30     6     7    1
    31     6    11    1
    32     7     9    1
    33     7     8    1
    34     8    13    1
    35     9    10    1
    36     9    12    1
    37    10     5    1
    38    10    11    1
    39    12    14    1
    40     5     4    1
    41     4     1    1
    42     1     2    1
    43     1    24    1
    44     1     3    2
    45    24    25    1
    46    28    25    1
    47    25    26    1
    48    25    27    2
@<TRIPOS>MOLECULE
UD2
 46 48 0 0 0
SMALL
GASTEIGER

@<TRIPOS>ATOM
      1 P          21.2745   71.2392   -0.2644 P.3     1  UNL1        0.2189
      2 O          21.5392   70.1708    0.9103 O.3     1  UNL1       -0.4371
      3 O          22.4236   71.2436   -1.1963 O.2     1  UNL1       -0.5170
      4 O          19.9361   70.8363   -1.0644 O.3     1  UNL1       -0.3112
      5 C          19.9461   70.3946   -2.4231 C.3     1  UNL1        0.1811
      6 C          17.6699   70.6708   -5.1943 C.3     1  UNL1        0.2383
      7 C          17.4206   69.2509   -4.6252 C.3     1  UNL1        0.1895
      8 O          16.0626   68.8531   -4.8235 O.3     1  UNL1       -0.3779
      9 C          17.7248   69.4458   -3.1196 C.3     1  UNL1        0.1713
     10 C          18.5976   70.7145   -3.0730 C.3     1  UNL1        0.1764
     11 O          18.7984   71.1457   -4.4284 O.3     1  UNL1       -0.3308
     12 O          16.5142   69.6439   -2.3876 O.3     1  UNL1       -0.3794
     13 H          15.8574   67.9711   -4.4848 H       1  UNL1        0.2106
     14 H          15.9005   68.8983   -2.4316 H       1  UNL1        0.2105
     15 N          18.0038   70.6043   -6.6187 N.ar    1  UNL1       -0.2551
     16 C          17.0204   70.6321   -7.5357 C.ar    1  UNL1        0.3323
     17 N          17.2982   70.5723   -8.8516 N.ar    1  UNL1       -0.2743
     18 C          18.5765   70.4849   -9.2721 C.ar    1  UNL1        0.2626
     19 C          19.6217   70.4558   -8.3177 C.ar    1  UNL1        0.0795
     20 C          19.3145   70.5215   -7.0052 C.ar    1  UNL1        0.0869
     21 O          15.8631   70.7109   -7.1710 O.2     1  UNL1       -0.2464
     22 O          18.8293   70.4311  -10.4628 O.2     1  UNL1       -0.2670
     23 H          16.5770   70.5922   -9.4994 H       1  UNL1        0.1734
     24 O          21.0957   72.7065    0.3747 O.3     1  UNL1       -0.2703
     25 P          20.8691   73.2536    1.8721 P.3     1  UNL1        0.2208
     26 O          19.7584   74.4197    1.8546 O.3     1  UNL1       -0.4371
     27 O          20.4071   72.1463    2.7375 O.2     1  UNL1       -0.5170
     28 O          22.2550   73.8404    2.4445 O.3     1  UNL1       -0.2865
     29 C          23.0273   73.1756    3.4459 C.3     1  UNL1        0.2611
     30 C          24.1291   74.1122    3.9473 C.3     1  UNL1        0.1582
     31 C          25.0674   74.4510    2.7850 C.3     1  UNL1        0.1625
     32 C          25.6307   73.1519    2.2023 C.3     1  UNL1        0.1686
     33 C          24.4707   72.2521    1.7680 C.3     1  UNL1        0.1760
     34 O          26.1411   75.2662    3.2604 O.3     1  UNL1       -0.3801
     35 O          26.4100   72.4818    3.1947 O.3     1  UNL1       -0.3794
     36 O          23.6197   72.0007    2.8881 O.3     1  UNL1       -0.3263
     37 H          26.7749   75.5198    2.5755 H       1  UNL1        0.2105
     38 H          26.7982   71.6482    2.8941 H       1  UNL1        0.2105
     39 C          24.0160   75.9148    5.5831 C.2     1  UNL1        0.2231
     40 C          23.3974   77.1805    6.1159 C.3     1  UNL1        0.0946
     41 N          23.5266   75.3433    4.4651 N.am    1  UNL1       -0.2994
     42 O          24.9556   75.4089    6.1605 O.2     1  UNL1       -0.2751
     43 H          22.7748   75.7468    4.0037 H       1  UNL1        0.1496
     44 C          25.0236   70.9271    1.2396 C.3     1  UNL1        0.1693
     45 O          24.9818   69.9451    2.2770 O.3     1  UNL1       -0.3794
     46 H          25.3180   69.0780    2.0124 H       1  UNL1        0.2105
@<TRIPOS>BOND
     1    29    30    1
     2    30    41    1
     3    30    31    1
     4    31    34    1
     5    31    32    1
     6    32    35    1
     7    32    33    1
     8    33    36    1
     9    33    44    1
    10    39    40    1
    11    39    42    2
    12    39    41   am
    13    41    43    1
    14    29    28    1
    15    34    37    1
    16    35    38    1
    17    29    36    1
    18    44    45    1
    19    45    46    1
    20    15     6    1
    21    15    16   ar
    22    16    21    2
    23    16    17   ar
    24    17    23    1
    25    17    18   ar
    26    18    19   ar
    27    19    20   ar
    28    15    20   ar
    29    18    22    2
    30     6     7    1
    31     6    11    1
    32     7     9    1
    33     7     8    1
    34     8    13    1
    35     9    10    1
    36     9    12    1
    37    10     5    1
    38    10    11    1
    39    12    14    1
    40     5     4    1
    41     4     1    1
    42     1     2    1
    43     1    24    1
    44     1     3    2
    45    24    25    1
    46    28    25    1
    47    25    26    1
    48    25    27    2
@<TRIPOS>MOLECULE
UD2
 46 48 0 0 0
SMALL
GASTEIGER

@<TRIPOS>ATOM
      1 P          22.2742   72.8838   -6.5797 P.3     1  UNL1        0.2189
      2 O          23.1719   73.3570   -7.8293 O.3     1  UNL1       -0.4371
      3 O          21.3904   73.9929   -6.1583 O.2     1  UNL1       -0.5170
      4 O          21.3777   71.6177   -7.0121 O.3     1  UNL1       -0.3112
      5 C          20.5276   71.6232   -8.1605 C.3     1  UNL1        0.1811
      6 C          17.6097   70.2748   -6.5469 C.3     1  UNL1        0.2383
      7 C          17.0497   71.1488   -7.6978 C.3     1  UNL1        0.1895
      8 O          15.8145   70.6206   -8.1847 O.3     1  UNL1       -0.3779
      9 C          18.1620   71.0286   -8.7682 C.3     1  UNL1        0.1713
     10 C          19.4074   70.5976   -7.9703 C.3     1  UNL1        0.1764
     11 O          19.0291   70.5381   -6.5859 O.3     1  UNL1       -0.3308
     12 O          17.8184   70.0349   -9.7353 O.3     1  UNL1       -0.3794
     13 H          15.4241   71.1333   -8.9054 H       1  UNL1        0.2106
     14 H          17.0083   70.2266  -10.2266 H       1  UNL1        0.2105
     15 N          17.0428   70.6894   -5.2616 N.ar    1  UNL1       -0.2551
     16 C          17.2324   69.9244   -4.1718 C.ar    1  UNL1        0.3323
     17 N          16.7228   70.2809   -2.9779 N.ar    1  UNL1       -0.2743
     18 C          16.0109   71.4199   -2.8566 C.ar    1  UNL1        0.2626
     19 C          15.8044   72.2351   -3.9953 C.ar    1  UNL1        0.0795
     20 C          16.3305   71.8555   -5.1788 C.ar    1  UNL1        0.0869
     21 O          17.8724   68.8949   -4.2664 O.2     1  UNL1       -0.2464
     22 O          15.5495   71.7439   -1.7765 O.2     1  UNL1       -0.2670
     23 H          16.8679   69.7172   -2.2025 H       1  UNL1        0.1734
     24 O          23.2345   72.4676   -5.3558 O.3     1  UNL1       -0.2703
     25 P          23.2781   72.8448   -3.7909 P.3     1  UNL1        0.2208
     26 O          23.7123   71.5489   -2.9389 O.3     1  UNL1       -0.4371
     27 O          24.2594   73.9299   -3.5719 O.2     1  UNL1       -0.5170
     28 O          21.8198   73.3356   -3.3164 O.3     1  UNL1       -0.2865
     29 C          21.6160   74.4778   -2.4827 C.3     1  UNL1        0.2611
     30 C          21.2071   74.0207   -1.0803 C.3     1  UNL1        0.1582
     31 C          19.8777   73.2646   -1.1666 C.3     1  UNL1        0.1625
     32 C          18.8268   74.1732   -1.8103 C.3     1  UNL1        0.1686
     33 C          19.3276   74.6245   -3.1849 C.3     1  UNL1        0.1760
     34 O          19.4513   72.8976    0.1475 O.3     1  UNL1       -0.3801
     35 O          18.6112   75.3164   -0.9810 O.3     1  UNL1       -0.3794
     36 O          20.5817   75.2933   -3.0372 O.3     1  UNL1       -0.3263
     37 H          18.6143   72.4137    0.1682 H       1  UNL1        0.2105
     38 H          17.9561   75.9376   -1.3287 H       1  UNL1        0.2105
     39 C          23.0867   73.5912    0.4098 C.2     1  UNL1        0.2231
     40 C          24.1477   72.6822    0.9723 C.3     1  UNL1        0.0946
     41 N          22.2391   73.1359   -0.5338 N.am    1  UNL1       -0.2994
     42 O          22.9946   74.7343    0.8060 O.2     1  UNL1       -0.2751
     43 H          22.3129   72.2223   -0.8516 H       1  UNL1        0.1496
     44 C          18.3097   75.5807   -3.8096 C.3     1  UNL1        0.1693
     45 O          17.8623   75.0512   -5.0593 O.3     1  UNL1       -0.3794
     46 H          17.2136   75.6068   -5.5128 H       1  UNL1        0.2105
@<TRIPOS>BOND
     1    29    30    1
     2    30    41    1
     3    30    31    1
     4    31    34    1
     5    31    32    1
     6    32    35    1
     7    32    33    1
     8    33    36    1
     9    33    44    1
    10    39    40    1
    11    39    42    2
    12    39    41   am
    13    41    43    1
    14    29    28    1
    15    34    37    1
    16    35    38    1
    17    29    36    1
    18    44    45    1
    19    45    46    1
    20    15     6    1
    21    15    16   ar
    22    16    21    2
    23    16    17   ar
    24    17    23    1
    25    17    18   ar
    26    18    19   ar
    27    19    20   ar
    28    15    20   ar
    29    18    22    2
    30     6     7    1
    31     6    11    1
    32     7     9    1
    33     7     8    1
    34     8    13    1
    35     9    10    1
    36     9    12    1
    37    10     5    1
    38    10    11    1
    39    12    14    1
    40     5     4    1
    41     4     1    1
    42     1     2    1
    43     1    24    1
    44     1     3    2
    45    24    25    1
    46    28    25    1
    47    25    26    1
    48    25    27    2
@<TRIPOS>MOLECULE
UD2
 46 48 0 0 0
SMALL
GASTEIGER

@<TRIPOS>ATOM
      1 P          17.0432   69.3991   -3.5964 P.3     1  UNL1        0.2189
      2 O          17.5370   68.3696   -2.4617 O.3     1  UNL1       -0.4371
      3 O          16.1727   68.6911   -4.5607 O.2     1  UNL1       -0.5170
      4 O          16.2180   70.5994   -2.9093 O.3     1  UNL1       -0.3112
      5 C          15.7287   70.5381   -1.5683 C.3     1  UNL1        0.1811
      6 C          12.8570   68.8002   -0.2760 C.3     1  UNL1        0.2383
      7 C          12.7585   70.2222    0.3327 C.3     1  UNL1        0.1895
      8 O          11.3947   70.5961    0.5371 O.3     1  UNL1       -0.3779
      9 C          13.4110   71.0933   -0.7685 C.3     1  UNL1        0.1713
     10 C          14.2625   70.0985   -1.5803 C.3     1  UNL1        0.1764
     11 O          14.1325   68.8128   -0.9531 O.3     1  UNL1       -0.3308
     12 O          12.4081   71.6853   -1.5959 O.3     1  UNL1       -0.3794
     13 H          11.2810   71.4779    0.9170 H       1  UNL1        0.2106
     14 H          11.8060   72.2761   -1.1237 H       1  UNL1        0.2105
     15 N          12.8429   67.7851    0.7797 N.ar    1  UNL1       -0.2551
     16 C          11.9083   66.8182    0.7619 C.ar    1  UNL1        0.3323
     17 N          11.8714   65.8726    1.7194 N.ar    1  UNL1       -0.2743
     18 C          12.7793   65.8806    2.7165 C.ar    1  UNL1        0.2626
     19 C          13.7693   66.8921    2.7471 C.ar    1  UNL1        0.0795
     20 C          13.7852   67.8250    1.7719 C.ar    1  UNL1        0.0869
     21 O          11.0835   66.7984   -0.1313 O.2     1  UNL1       -0.2464
     22 O          12.7473   65.0251    3.5835 O.2     1  UNL1       -0.2670
     23 H          11.1901   65.1832    1.6921 H       1  UNL1        0.1734
     24 O          18.3217   70.0011   -4.3685 O.3     1  UNL1       -0.2703
     25 P          18.9712   71.4704   -4.4791 P.3     1  UNL1        0.2208
     26 O          18.8891   72.2020   -3.0467 O.3     1  UNL1       -0.4371
     27 O          20.3867   71.3545   -4.8927 O.2     1  UNL1       -0.5170
     28 O          18.1616   72.3342   -5.5705 O.3     1  UNL1       -0.2865
     29 C          16.9402   71.8904   -6.1641 C.3     1  UNL1        0.2611
     30 C          16.7995   72.5002   -7.5609 C.3     1  UNL1        0.1582
     31 C          16.7297   74.0254   -7.4381 C.3     1  UNL1        0.1625
     32 C          15.5623   74.4001   -6.5210 C.3     1  UNL1        0.1686
     33 C          15.7507   73.7169   -5.1639 C.3     1  UNL1        0.1760
     34 O          16.5245   74.5994   -8.7310 O.3     1  UNL1       -0.3801
     35 O          14.3346   73.9655   -7.1086 O.3     1  UNL1       -0.3794
     36 O          15.8389   72.3031   -5.3522 O.3     1  UNL1       -0.3263
     37 H          16.4711   75.5650   -8.7283 H       1  UNL1        0.2105
     38 H          13.5506   74.1697   -6.5798 H       1  UNL1        0.2105
     39 C          17.9925   70.9276   -8.9898 C.2     1  UNL1        0.2231
     40 C          19.1829   70.5435   -9.8288 C.3     1  UNL1        0.0946
     41 N          17.9580   72.1272   -8.3766 N.am    1  UNL1       -0.2994
     42 O          17.0636   70.1569   -8.8657 O.2     1  UNL1       -0.2751
     43 H          18.7008   72.7432   -8.4748 H       1  UNL1        0.1496
     44 C          14.5579   74.0381   -4.2614 C.3     1  UNL1        0.1693
     45 O          13.6744   72.9155   -4.2209 O.3     1  UNL1       -0.3794
     46 H          12.8937   73.0485   -3.6660 H       1  UNL1        0.2105
@<TRIPOS>BOND
     1    29    30    1
     2    30    41    1
     3    30    31    1
     4    31    34    1
     5    31    32    1
     6    32    35    1
     7    32    33    1
     8    33    36    1
     9    33    44    1
    10    39    40    1
    11    39    42    2
    12    39    41   am
    13    41    43    1
    14    29    28    1
    15    34    37    1
    16    35    38    1
    17    29    36    1
    18    44    45    1
    19    45    46    1
    20    15     6    1
    21    15    16   ar
    22    16    21    2
    23    16    17   ar
    24    17    23    1
    25    17    18   ar
    26    18    19   ar
    27    19    20   ar
    28    15    20   ar
    29    18    22    2
    30     6     7    1
    31     6    11    1
    32     7     9    1
    33     7     8    1
    34     8    13    1
    35     9    10    1
    36     9    12    1
    37    10     5    1
    38    10    11    1
    39    12    14    1
    40     5     4    1
    41     4     1    1
    42     1     2    1
    43     1    24    1
    44     1     3    2
    45    24    25    1
    46    28    25    1
    47    25    26    1
    48    25    27    2
@<TRIPOS>MOLECULE
UD2
 46 48 0 0 0
SMALL
GASTEIGER

@<TRIPOS>ATOM
      1 P          23.0359   72.2774   -2.9136 P.3     1  UNL1        0.2189
      2 O          23.3761   73.7368   -2.3255 O.3     1  UNL1       -0.4371
      3 O          24.1539   71.8152   -3.7653 O.2     1  UNL1       -0.5170
      4 O          22.8258   71.2441   -1.6962 O.3     1  UNL1       -0.3112
      5 C          21.5387   70.9109   -1.1731 C.3     1  UNL1        0.1811
      6 C          22.9921   71.8878    1.9685 C.3     1  UNL1        0.2383
      7 C          22.4419   73.2059    1.3671 C.3     1  UNL1        0.1895
      8 O          22.0352   74.1068    2.3990 O.3     1  UNL1       -0.3779
      9 C          21.2208   72.7083    0.5554 C.3     1  UNL1        0.1713
     10 C          21.5050   71.2114    0.3274 C.3     1  UNL1        0.1764
     11 O          22.7855   70.9251    0.9121 O.3     1  UNL1       -0.3308
     12 O          20.0183   72.8809    1.3070 O.3     1  UNL1       -0.3794
     13 H          21.6842   74.9464    2.0727 H       1  UNL1        0.2106
     14 H          19.8214   73.8007    1.5299 H       1  UNL1        0.2105
     15 N          24.4179   72.0174    2.2773 N.ar    1  UNL1       -0.2551
     16 C          25.1944   70.9198    2.3133 C.ar    1  UNL1        0.3323
     17 N          26.5079   71.0093    2.5945 N.ar    1  UNL1       -0.2743
     18 C          27.0682   72.2102    2.8443 C.ar    1  UNL1        0.2626
     19 C          26.2628   73.3739    2.8088 C.ar    1  UNL1        0.0795
     20 C          24.9498   73.2552    2.5199 C.ar    1  UNL1        0.0869
     21 O          24.7027   69.8305    2.0899 O.2     1  UNL1       -0.2464
     22 O          28.2569   72.2926    3.0986 O.2     1  UNL1       -0.2670
     23 H          27.0531   70.2078    2.6176 H       1  UNL1        0.1734
     24 O          21.6878   72.3530   -3.7912 O.3     1  UNL1       -0.2703
     25 P          21.3850   72.5512   -5.3602 P.3     1  UNL1        0.2208
     26 O          21.1500   74.1145   -5.6676 O.3     1  UNL1       -0.4371
     27 O          22.5354   72.0611   -6.1507 O.2     1  UNL1       -0.5170
     28 O          20.0651   71.7206   -5.7611 O.3     1  UNL1       -0.2865
     29 C          18.9738   72.2942   -6.4831 C.3     1  UNL1        0.2611
     30 C          17.6526   71.8499   -5.8507 C.3     1  UNL1        0.1582
     31 C          17.5320   70.3266   -5.9581 C.3     1  UNL1        0.1625
     32 C          17.6366   69.9195   -7.4304 C.3     1  UNL1        0.1686
     33 C          18.9588   70.4384   -8.0020 C.3     1  UNL1        0.1760
     34 O          16.2681   69.9101   -5.4361 O.3     1  UNL1       -0.3801
     35 O          16.5459   70.4837   -8.1607 O.3     1  UNL1       -0.3794
     36 O          19.0206   71.8571   -7.8429 O.3     1  UNL1       -0.3263
     37 H          16.1239   68.9545   -5.4719 H       1  UNL1        0.2105
     38 H          16.5489   70.2668   -9.1035 H       1  UNL1        0.2105
     39 C          18.0828   71.3982   -3.4951 C.2     1  UNL1        0.2231
     40 C          18.0582   71.8035   -2.0447 C.3     1  UNL1        0.0946
     41 N          17.6282   72.2448   -4.4400 N.am    1  UNL1       -0.2994
     42 O          18.5121   70.3090   -3.8136 O.2     1  UNL1       -0.2751
     43 H          17.2840   73.1153   -4.1858 H       1  UNL1        0.1496
     44 C          19.0442   70.0873   -9.4886 C.3     1  UNL1        0.1693
     45 O          18.4960   71.1558  -10.2633 O.3     1  UNL1       -0.3794
     46 H          18.5171   71.0015  -11.2177 H       1  UNL1        0.2105
@<TRIPOS>BOND
     1    29    30    1
     2    30    41    1
     3    30    31    1
     4    31    34    1
     5    31    32    1
     6    32    35    1
     7    32    33    1
     8    33    36    1
     9    33    44    1
    10    39    40    1
    11    39    42    2
    12    39    41   am
    13    41    43    1
    14    29    28    1
    15    34    37    1
    16    35    38    1
    17    29    36    1
    18    44    45    1
    19    45    46    1
    20    15     6    1
    21    15    16   ar
    22    16    21    2
    23    16    17   ar
    24    17    23    1
    25    17    18   ar
    26    18    19   ar
    27    19    20   ar
    28    15    20   ar
    29    18    22    2
    30     6     7    1
    31     6    11    1
    32     7     9    1
    33     7     8    1
    34     8    13    1
    35     9    10    1
    36     9    12    1
    37    10     5    1
    38    10    11    1
    39    12    14    1
    40     5     4    1
    41     4     1    1
    42     1     2    1
    43     1    24    1
    44     1     3    2
    45    24    25    1
    46    28    25    1
    47    25    26    1
    48    25    27    2
