@<TRIPOS>MOLECULE
UD1
 46 48 0 0 0
SMALL
GASTEIGER

@<TRIPOS>ATOM
      1 P          20.8926   71.6965   -2.1684 P.3     1  UNL1        0.2189
      2 O          21.5417   73.0249   -2.1163 O.2     1  UNL1       -0.5170
      3 O          21.9396   70.6092   -2.7290 O.3     1  UNL1       -0.4371
      4 O          19.6143   71.7624   -3.1453 O.3     1  UNL1       -0.3112
      5 C          18.5404   71.1097   -2.4663 C.3     1  UNL1        0.1811
      6 C          16.9664   70.6095   -5.6599 C.3     1  UNL1        0.2383
      7 C          17.0146   69.1970   -5.0254 C.3     1  UNL1        0.1895
      8 O          15.9115   68.4024   -5.4626 O.3     1  UNL1       -0.3779
      9 C          16.9015   69.5158   -3.5119 C.3     1  UNL1        0.1713
     10 C          17.3397   70.9893   -3.4060 C.3     1  UNL1        0.1764
     11 O          17.7066   71.4244   -4.7263 O.3     1  UNL1       -0.3308
     12 O          15.5531   69.3548   -3.0661 O.3     1  UNL1       -0.3794
     13 H          16.0003   67.5398   -5.0341 H       1  UNL1        0.2106
     14 H          15.3191   68.4287   -3.2132 H       1  UNL1        0.2105
     15 N          17.6131   70.6116   -6.9726 N.ar    1  UNL1       -0.2551
     16 C          16.8658   70.4928   -8.0838 C.ar    1  UNL1        0.3323
     17 N          17.4334   70.4956   -9.3045 N.ar    1  UNL1       -0.2743
     18 C          18.7708   70.6092   -9.4316 C.ar    1  UNL1        0.2626
     19 C          19.5701   70.7289   -8.2699 C.ar    1  UNL1        0.0795
     20 C          18.9743   70.7287   -7.0581 C.ar    1  UNL1        0.0869
     21 O          15.6582   70.3897   -7.9854 O.2     1  UNL1       -0.2464
     22 O          19.2855   70.6070  -10.5346 O.2     1  UNL1       -0.2670
     23 H          16.8785   70.4138  -10.0954 H       1  UNL1        0.1734
     24 O          20.4173   71.2731   -0.6907 O.3     1  UNL1       -0.2703
     25 P          21.7483   71.1262    0.2015 P.3     1  UNL1        0.2208
     26 O          22.9254   71.0001   -0.6858 O.2     1  UNL1       -0.5170
     27 O          21.6324   69.8143    1.1276 O.3     1  UNL1       -0.4371
     28 O          21.9167   72.4268    1.1346 O.3     1  UNL1       -0.2865
     29 C          21.9949   71.9621    2.4833 C.3     1  UNL1        0.2611
     30 C          21.8752   73.1532    3.4356 C.3     1  UNL1        0.1582
     31 C          23.0039   74.1471    3.1395 C.3     1  UNL1        0.1625
     32 C          24.3411   73.4007    3.1938 C.3     1  UNL1        0.1686
     33 C          24.2757   72.1925    2.2572 C.3     1  UNL1        0.1760
     34 O          22.9932   75.1889    4.1172 O.3     1  UNL1       -0.3801
     35 O          25.3929   74.2736    2.7775 O.3     1  UNL1       -0.3794
     36 O          23.2440   71.3049    2.6864 O.3     1  UNL1       -0.3263
     37 H          23.7170   75.7899    3.8930 H       1  UNL1        0.2105
     38 H          26.2145   73.7645    2.8258 H       1  UNL1        0.2105
     39 C          19.9059   74.2989    4.2978 C.2     1  UNL1        0.2231
     40 C          18.5729   74.9731    4.0959 C.3     1  UNL1        0.0946
     41 N          20.5804   73.8086    3.2400 N.am    1  UNL1       -0.2994
     42 O          20.3712   74.1972    5.4128 O.2     1  UNL1       -0.2751
     43 H          20.2082   73.8897    2.3476 H       1  UNL1        0.1496
     44 C          25.6180   71.4584    2.2793 C.3     1  UNL1        0.1693
     45 O          25.6679   70.5233    1.1999 O.3     1  UNL1       -0.3794
     46 H          26.5273   70.0833    1.2503 H       1  UNL1        0.2105
@<TRIPOS>BOND
     1    29    30    1
     2    29    28    1
     3    29    36    1
     4    30    31    1
     5    30    41    1
     6    31    32    1
     7    31    34    1
     8    32    33    1
     9    32    35    1
    10    33    44    1
    11    33    36    1
    12    44    45    1
    13    39    40    1
    14    39    41   am
    15    39    42    2
    16    41    43    1
    17    28    25    1
    18    34    37    1
    19    35    38    1
    20    45    46    1
    21    15    16   ar
    22    15    20   ar
    23    15     6    1
    24    16    17   ar
    25    16    21    2
    26    17    18   ar
    27    17    23    1
    28    18    19   ar
    29    18    22    2
    30    19    20   ar
    31     6     7    1
    32     6    11    1
    33     7     8    1
    34     7     9    1
    35     8    13    1
    36     9    10    1
    37     9    12    1
    38    10    11    1
    39    10     5    1
    40    12    14    1
    41     5     4    1
    42     4     1    1
    43     1     2    2
    44     1     3    1
    45     1    24    1
    46    24    25    1
    47    25    26    2
    48    25    27    1
@<TRIPOS>MOLECULE
UD1
 46 48 0 0 0
SMALL
GASTEIGER

@<TRIPOS>ATOM
      1 P          20.5997   71.1995   -2.9993 P.3     1  UNL1        0.2189
      2 O          20.4404   72.6586   -2.8135 O.2     1  UNL1       -0.5170
      3 O          20.9986   70.8937   -4.5289 O.3     1  UNL1       -0.4371
      4 O          19.2128   70.4600   -2.6492 O.3     1  UNL1       -0.3112
      5 C          18.2014   71.4683   -2.6223 C.3     1  UNL1        0.1811
      6 C          16.8463   70.4952   -5.8072 C.3     1  UNL1        0.2383
      7 C          17.1061   69.1571   -5.0707 C.3     1  UNL1        0.1895
      8 O          16.1665   68.1605   -5.4747 O.3     1  UNL1       -0.3779
      9 C          16.8882   69.5542   -3.5875 C.3     1  UNL1        0.1713
     10 C          17.0714   71.0842   -3.5787 C.3     1  UNL1        0.1764
     11 O          17.4074   71.4843   -4.9182 O.3     1  UNL1       -0.3308
     12 O          15.5704   69.1993   -3.1629 O.3     1  UNL1       -0.3794
     13 H          16.3823   67.3563   -4.9826 H       1  UNL1        0.2106
     14 H          15.4988   68.2392   -3.2477 H       1  UNL1        0.2105
     15 N          17.5297   70.5171   -7.1010 N.ar    1  UNL1       -0.2551
     16 C          16.8084   70.5259   -8.2355 C.ar    1  UNL1        0.3323
     17 N          17.4102   70.5500   -9.4394 N.ar    1  UNL1       -0.2743
     18 C          18.7557   70.5564   -9.5264 C.ar    1  UNL1        0.2626
     19 C          19.5273   70.5413   -8.3401 C.ar    1  UNL1        0.0795
     20 C          18.8978   70.5225   -7.1456 C.ar    1  UNL1        0.0869
     21 O          15.5940   70.5205   -8.1734 O.2     1  UNL1       -0.2464
     22 O          19.3010   70.5734  -10.6144 O.2     1  UNL1       -0.2670
     23 H          16.8743   70.5610  -10.2473 H       1  UNL1        0.1734
     24 O          21.7580   70.6574   -2.0229 O.3     1  UNL1       -0.2703
     25 P          23.0250   71.6296   -2.2202 P.3     1  UNL1        0.2208
     26 O          22.6452   72.7644   -3.0902 O.2     1  UNL1       -0.5170
     27 O          24.2301   70.8098   -2.9043 O.3     1  UNL1       -0.4371
     28 O          23.5027   72.1879   -0.7882 O.3     1  UNL1       -0.2865
     29 C          22.5764   71.6921    0.1800 C.3     1  UNL1        0.2611
     30 C          21.9816   72.8673    0.9579 C.3     1  UNL1        0.1582
     31 C          23.1149   73.6417    1.6403 C.3     1  UNL1        0.1625
     32 C          23.9455   72.6609    2.4747 C.3     1  UNL1        0.1686
     33 C          24.3948   71.5027    1.5814 C.3     1  UNL1        0.1760
     34 O          22.5627   74.6496    2.4891 O.3     1  UNL1       -0.3801
     35 O          25.0915   73.3327    3.0011 O.3     1  UNL1       -0.3794
     36 O          23.2526   70.8126    1.0759 O.3     1  UNL1       -0.3263
     37 H          23.3086   75.1110    2.8967 H       1  UNL1        0.2105
     38 H          25.5855   72.6803    3.5177 H       1  UNL1        0.2105
     39 C          19.9997   74.1229    0.3026 C.2     1  UNL1        0.2231
     40 C          19.2646   75.0347   -0.6464 C.3     1  UNL1        0.0946
     41 N          21.2673   73.7534    0.0366 N.am    1  UNL1       -0.2994
     42 O          19.4496   73.7213    1.3057 O.2     1  UNL1       -0.2751
     43 H          21.7077   74.0745   -0.7662 H       1  UNL1        0.1496
     44 C          25.2527   70.5338    2.3977 C.3     1  UNL1        0.1693
     45 O          26.6189   70.9501    2.3496 O.3     1  UNL1       -0.3794
     46 H          27.1238   70.3144    2.8747 H       1  UNL1        0.2105
@<TRIPOS>BOND
     1    29    30    1
     2    29    28    1
     3    29    36    1
     4    30    31    1
     5    30    41    1
     6    31    32    1
     7    31    34    1
     8    32    33    1
     9    32    35    1
    10    33    44    1
    11    33    36    1
    12    44    45    1
    13    39    40    1
    14    39    41   am
    15    39    42    2
    16    41    43    1
    17    28    25    1
    18    34    37    1
    19    35    38    1
    20    45    46    1
    21    15    16   ar
    22    15    20   ar
    23    15     6    1
    24    16    17   ar
    25    16    21    2
    26    17    18   ar
    27    17    23    1
    28    18    19   ar
    29    18    22    2
    30    19    20   ar
    31     6     7    1
    32     6    11    1
    33     7     8    1
    34     7     9    1
    35     8    13    1
    36     9    10    1
    37     9    12    1
    38    10    11    1
    39    10     5    1
    40    12    14    1
    41     5     4    1
    42     4     1    1
    43     1     2    2
    44     1     3    1
    45     1    24    1
    46    24    25    1
    47    25    26    2
    48    25    27    1
@<TRIPOS>MOLECULE
UD1
 46 48 0 0 0
SMALL
GASTEIGER

@<TRIPOS>ATOM
      1 P          20.7022   71.6117   -2.3383 P.3     1  UNL1        0.2189
      2 O          21.4576   72.8406   -2.0097 O.2     1  UNL1       -0.5170
      3 O          21.4928   70.7819   -3.4692 O.3     1  UNL1       -0.4371
      4 O          19.2426   72.0107   -2.8889 O.3     1  UNL1       -0.3112
      5 C          18.3522   70.9648   -2.4970 C.3     1  UNL1        0.1811
      6 C          16.8770   70.5807   -5.7533 C.3     1  UNL1        0.2383
      7 C          16.8726   69.1520   -5.1542 C.3     1  UNL1        0.1895
      8 O          15.7678   68.3940   -5.6482 O.3     1  UNL1       -0.3779
      9 C          16.7152   69.4354   -3.6376 C.3     1  UNL1        0.1713
     10 C          17.1818   70.8954   -3.4791 C.3     1  UNL1        0.1764
     11 O          17.6028   71.3549   -4.7748 O.3     1  UNL1       -0.3308
     12 O          15.3493   69.2941   -3.2413 O.3     1  UNL1       -0.3794
     13 H          15.8231   67.5192   -5.2394 H       1  UNL1        0.2106
     14 H          15.1000   68.3775   -3.4199 H       1  UNL1        0.2105
     15 N          17.5678   70.6010   -7.0431 N.ar    1  UNL1       -0.2551
     16 C          16.8610   70.4735   -8.1796 C.ar    1  UNL1        0.3323
     17 N          17.4696   70.4925   -9.3802 N.ar    1  UNL1       -0.2743
     18 C          18.8083   70.6315   -9.4613 C.ar    1  UNL1        0.2626
     19 C          19.5652   70.7607   -8.2725 C.ar    1  UNL1        0.0795
     20 C          18.9287   70.7437   -7.0817 C.ar    1  UNL1        0.0869
     21 O          15.6529   70.3474   -8.1229 O.2     1  UNL1       -0.2464
     22 O          19.3601   70.6440  -10.5460 O.2     1  UNL1       -0.2670
     23 H          16.9436   70.4040  -10.1899 H       1  UNL1        0.1734
     24 O          20.5481   70.7070   -1.0167 O.3     1  UNL1       -0.2703
     25 P          21.7813   71.0790   -0.0522 P.3     1  UNL1        0.2208
     26 O          23.0434   71.0249   -0.8223 O.2     1  UNL1       -0.5170
     27 O          21.8497   70.0255    1.1633 O.3     1  UNL1       -0.4371
     28 O          21.5752   72.5627    0.5364 O.3     1  UNL1       -0.2865
     29 C          20.4259   72.5164    1.3840 C.3     1  UNL1        0.2611
     30 C          19.6574   73.8337    1.2652 C.3     1  UNL1        0.1582
     31 C          20.5799   74.9901    1.6671 C.3     1  UNL1        0.1625
     32 C          21.1587   74.6957    3.0550 C.3     1  UNL1        0.1686
     33 C          21.8167   73.3144    3.0378 C.3     1  UNL1        0.1760
     34 O          19.8330   76.2076    1.7045 O.3     1  UNL1       -0.3801
     35 O          22.1332   75.6868    3.3865 O.3     1  UNL1       -0.3794
     36 O          20.8403   72.3190    2.7340 O.3     1  UNL1       -0.3263
     37 H          20.4506   76.9065    1.9605 H       1  UNL1        0.2105
     38 H          22.4716   75.4634    4.2651 H       1  UNL1        0.2105
     39 C          17.9266   74.3219   -0.3780 C.2     1  UNL1        0.2231
     40 C          17.4694   74.5117   -1.8018 C.3     1  UNL1        0.0946
     41 N          19.2129   74.0187   -0.1177 N.am    1  UNL1       -0.2994
     42 O          17.1362   74.4416    0.5336 O.2     1  UNL1       -0.2751
     43 H          19.8456   73.9226   -0.8471 H       1  UNL1        0.1496
     44 C          22.4267   73.0243    4.4108 C.3     1  UNL1        0.1693
     45 O          23.7600   73.5361    4.4579 O.3     1  UNL1       -0.3794
     46 H          24.1070   73.3327    5.3370 H       1  UNL1        0.2105
@<TRIPOS>BOND
     1    29    30    1
     2    29    28    1
     3    29    36    1
     4    30    31    1
     5    30    41    1
     6    31    32    1
     7    31    34    1
     8    32    33    1
     9    32    35    1
    10    33    44    1
    11    33    36    1
    12    44    45    1
    13    39    40    1
    14    39    41   am
    15    39    42    2
    16    41    43    1
    17    28    25    1
    18    34    37    1
    19    35    38    1
    20    45    46    1
    21    15    16   ar
    22    15    20   ar
    23    15     6    1
    24    16    17   ar
    25    16    21    2
    26    17    18   ar
    27    17    23    1
    28    18    19   ar
    29    18    22    2
    30    19    20   ar
    31     6     7    1
    32     6    11    1
    33     7     8    1
    34     7     9    1
    35     8    13    1
    36     9    10    1
    37     9    12    1
    38    10    11    1
    39    10     5    1
    40    12    14    1
    41     5     4    1
    42     4     1    1
    43     1     2    2
    44     1     3    1
    45     1    24    1
    46    24    25    1
    47    25    26    2
    48    25    27    1
@<TRIPOS>MOLECULE
UD1
 46 48 0 0 0
SMALL
GASTEIGER

@<TRIPOS>ATOM
      1 P          20.6408   71.6720   -1.9543 P.3     1  UNL1        0.2189
      2 O          21.2202   73.0110   -1.7092 O.2     1  UNL1       -0.5170
      3 O          21.7412   70.7320   -2.6600 O.3     1  UNL1       -0.4371
      4 O          19.3580   71.8110   -2.9176 O.3     1  UNL1       -0.3112
      5 C          18.4111   70.8309   -2.4899 C.3     1  UNL1        0.1811
      6 C          16.9054   70.5219   -5.7402 C.3     1  UNL1        0.2383
      7 C          16.8746   69.0857   -5.1600 C.3     1  UNL1        0.1895
      8 O          15.7504   68.3581   -5.6561 O.3     1  UNL1       -0.3779
      9 C          16.7338   69.3521   -3.6387 C.3     1  UNL1        0.1713
     10 C          17.2326   70.7996   -3.4643 C.3     1  UNL1        0.1764
     11 O          17.6544   71.2673   -4.7569 O.3     1  UNL1       -0.3308
     12 O          15.3679   69.2346   -3.2345 O.3     1  UNL1       -0.3794
     13 H          15.7898   67.4769   -5.2593 H       1  UNL1        0.2106
     14 H          15.0979   68.3261   -3.4235 H       1  UNL1        0.2105
     15 N          17.5876   70.5446   -7.0347 N.ar    1  UNL1       -0.2551
     16 C          16.8666   70.5031   -8.1686 C.ar    1  UNL1        0.3323
     17 N          17.4672   70.5266   -9.3731 N.ar    1  UNL1       -0.2743
     18 C          18.8114   70.5833   -9.4611 C.ar    1  UNL1        0.2626
     19 C          19.5829   70.6215   -8.2753 C.ar    1  UNL1        0.0795
     20 C          18.9545   70.6021   -7.0803 C.ar    1  UNL1        0.0869
     21 O          15.6533   70.4519   -8.1056 O.2     1  UNL1       -0.2464
     22 O          19.3557   70.5998  -10.5497 O.2     1  UNL1       -0.2670
     23 H          16.9313   70.5008  -10.1808 H       1  UNL1        0.1734
     24 O          20.1922   71.0170   -0.5548 O.3     1  UNL1       -0.2703
     25 P          21.3886   71.2833    0.4879 P.3     1  UNL1        0.2208
     26 O          22.4811   72.0141   -0.1913 O.2     1  UNL1       -0.5170
     27 O          21.9457   69.8763    1.0374 O.3     1  UNL1       -0.4371
     28 O          20.8417   72.1609    1.7213 O.3     1  UNL1       -0.2865
     29 C          21.5820   73.3829    1.7209 C.3     1  UNL1        0.2611
     30 C          22.6461   73.3291    2.8184 C.3     1  UNL1        0.1582
     31 C          21.9598   73.1127    4.1718 C.3     1  UNL1        0.1625
     32 C          20.8874   74.1917    4.3557 C.3     1  UNL1        0.1686
     33 C          19.9540   74.1783    3.1433 C.3     1  UNL1        0.1760
     34 O          22.9262   73.2098    5.2197 O.3     1  UNL1       -0.3801
     35 O          20.1370   73.9226    5.5414 O.3     1  UNL1       -0.3794
     36 O          20.6957   74.4739    1.9605 O.3     1  UNL1       -0.3263
     37 H          22.4524   73.0674    6.0508 H       1  UNL1        0.2105
     38 H          19.4743   74.6236    5.6182 H       1  UNL1        0.2105
     39 C          24.8966   72.4078    2.6739 C.2     1  UNL1        0.2231
     40 C          25.8450   71.2685    2.4004 C.3     1  UNL1        0.0946
     41 N          23.5679   72.2226    2.5533 N.am    1  UNL1       -0.2994
     42 O          25.3296   73.4917    3.0020 O.2     1  UNL1       -0.2751
     43 H          23.2211   71.3553    2.2905 H       1  UNL1        0.1496
     44 C          18.8596   75.2309    3.3322 C.3     1  UNL1        0.1693
     45 O          17.7724   74.6621    4.0646 O.3     1  UNL1       -0.3794
     46 H          17.1065   75.3563    4.1610 H       1  UNL1        0.2105
@<TRIPOS>BOND
     1    29    30    1
     2    29    28    1
     3    29    36    1
     4    30    31    1
     5    30    41    1
     6    31    32    1
     7    31    34    1
     8    32    33    1
     9    32    35    1
    10    33    44    1
    11    33    36    1
    12    44    45    1
    13    39    40    1
    14    39    41   am
    15    39    42    2
    16    41    43    1
    17    28    25    1
    18    34    37    1
    19    35    38    1
    20    45    46    1
    21    15    16   ar
    22    15    20   ar
    23    15     6    1
    24    16    17   ar
    25    16    21    2
    26    17    18   ar
    27    17    23    1
    28    18    19   ar
    29    18    22    2
    30    19    20   ar
    31     6     7    1
    32     6    11    1
    33     7     8    1
    34     7     9    1
    35     8    13    1
    36     9    10    1
    37     9    12    1
    38    10    11    1
    39    10     5    1
    40    12    14    1
    41     5     4    1
    42     4     1    1
    43     1     2    2
    44     1     3    1
    45     1    24    1
    46    24    25    1
    47    25    26    2
    48    25    27    1
@<TRIPOS>MOLECULE
UD1
 46 48 0 0 0
SMALL
GASTEIGER

@<TRIPOS>ATOM
      1 P          20.8077   71.3608   -1.0119 P.3     1  UNL1        0.2189
      2 O          20.6971   70.6092    0.2576 O.2     1  UNL1       -0.5170
      3 O          21.4039   72.8272   -0.7172 O.3     1  UNL1       -0.4371
      4 O          19.3499   71.4999   -1.6814 O.3     1  UNL1       -0.3112
      5 C          19.1807   70.3730   -2.5426 C.3     1  UNL1        0.1811
      6 C          17.2861   70.4276   -5.5979 C.3     1  UNL1        0.2383
      7 C          17.1200   68.9828   -5.0639 C.3     1  UNL1        0.1895
      8 O          15.8557   68.4392   -5.4449 O.3     1  UNL1       -0.3779
      9 C          17.1924   69.1926   -3.5290 C.3     1  UNL1        0.1713
     10 C          17.9063   70.5488   -3.3698 C.3     1  UNL1        0.1764
     11 O          18.2396   71.0163   -4.6880 O.3     1  UNL1       -0.3308
     12 O          15.8786   69.2426   -2.9684 O.3     1  UNL1       -0.3794
     13 H          15.8157   67.5429   -5.0836 H       1  UNL1        0.2106
     14 H          15.4638   68.3892   -3.1524 H       1  UNL1        0.2105
     15 N          17.8127   70.4194   -6.9632 N.ar    1  UNL1       -0.2551
     16 C          16.9632   70.4327   -8.0051 C.ar    1  UNL1        0.3323
     17 N          17.4195   70.4296   -9.2716 N.ar    1  UNL1       -0.2743
     18 C          18.7452   70.4036   -9.5161 C.ar    1  UNL1        0.2626
     19 C          19.6506   70.3834   -8.4286 C.ar    1  UNL1        0.0795
     20 C          19.1658   70.3924   -7.1683 C.ar    1  UNL1        0.0869
     21 O          15.7647   70.4563   -7.8007 O.2     1  UNL1       -0.2464
     22 O          19.1587   70.3960  -10.6608 O.2     1  UNL1       -0.2670
     23 H          16.7925   70.4442  -10.0110 H       1  UNL1        0.1734
     24 O          21.7870   70.5745   -2.0176 O.3     1  UNL1       -0.2703
     25 P          22.9664   71.5959   -2.4116 P.3     1  UNL1        0.2208
     26 O          24.0553   70.8553   -3.0858 O.2     1  UNL1       -0.5170
     27 O          23.5389   72.2953   -1.0792 O.3     1  UNL1       -0.4371
     28 O          22.3909   72.7250   -3.4038 O.3     1  UNL1       -0.2865
     29 C          23.5152   73.3061   -4.0668 C.3     1  UNL1        0.2611
     30 C          23.4193   74.8304   -3.9816 C.3     1  UNL1        0.1582
     31 C          22.1101   75.2876   -4.6347 C.3     1  UNL1        0.1625
     32 C          22.0408   74.7081   -6.0516 C.3     1  UNL1        0.1686
     33 C          22.2376   73.1924   -5.9803 C.3     1  UNL1        0.1760
     34 O          22.0782   76.7147   -4.6954 O.3     1  UNL1       -0.3801
     35 O          20.7649   74.9993   -6.6251 O.3     1  UNL1       -0.3794
     36 O          23.5224   72.8982   -5.4332 O.3     1  UNL1       -0.3263
     37 H          21.2398   76.9580   -5.1117 H       1  UNL1        0.2105
     38 H          20.7639   74.6169   -7.5140 H       1  UNL1        0.2105
     39 C          24.5979   75.6047   -1.9952 C.2     1  UNL1        0.2231
     40 C          24.6164   76.0306   -0.5494 C.3     1  UNL1        0.0946
     41 N          23.4377   75.2447   -2.5772 N.am    1  UNL1       -0.2994
     42 O          25.6278   75.5854   -2.6348 O.2     1  UNL1       -0.2751
     43 H          22.6134   75.2598   -2.0655 H       1  UNL1        0.1496
     44 C          22.1376   72.5996   -7.3873 C.3     1  UNL1        0.1693
     45 O          22.8892   73.4043   -8.2982 O.3     1  UNL1       -0.3794
     46 H          22.7998   72.9973   -9.1705 H       1  UNL1        0.2105
@<TRIPOS>BOND
     1    29    30    1
     2    29    28    1
     3    29    36    1
     4    30    31    1
     5    30    41    1
     6    31    32    1
     7    31    34    1
     8    32    33    1
     9    32    35    1
    10    33    44    1
    11    33    36    1
    12    44    45    1
    13    39    40    1
    14    39    41   am
    15    39    42    2
    16    41    43    1
    17    28    25    1
    18    34    37    1
    19    35    38    1
    20    45    46    1
    21    15    16   ar
    22    15    20   ar
    23    15     6    1
    24    16    17   ar
    25    16    21    2
    26    17    18   ar
    27    17    23    1
    28    18    19   ar
    29    18    22    2
    30    19    20   ar
    31     6     7    1
    32     6    11    1
    33     7     8    1
    34     7     9    1
    35     8    13    1
    36     9    10    1
    37     9    12    1
    38    10    11    1
    39    10     5    1
    40    12    14    1
    41     5     4    1
    42     4     1    1
    43     1     2    2
    44     1     3    1
    45     1    24    1
    46    24    25    1
    47    25    26    2
    48    25    27    1
@<TRIPOS>MOLECULE
UD1
 46 48 0 0 0
SMALL
GASTEIGER

@<TRIPOS>ATOM
      1 P          20.8793   71.4434   -2.0972 P.3     1  UNL1        0.2189
      2 O          21.6026   70.5577   -3.0358 O.2     1  UNL1       -0.5170
      3 O          20.6932   70.6918   -0.6854 O.3     1  UNL1       -0.4371
      4 O          19.4331   71.8038   -2.7068 O.3     1  UNL1       -0.3112
      5 C          18.5696   70.7083   -2.3992 C.3     1  UNL1        0.1811
      6 C          16.9800   70.5039   -5.6177 C.3     1  UNL1        0.2383
      7 C          16.9316   69.0562   -5.0682 C.3     1  UNL1        0.1895
      8 O          15.7803   68.3640   -5.5523 O.3     1  UNL1       -0.3779
      9 C          16.8333   69.2916   -3.5385 C.3     1  UNL1        0.1713
     10 C          17.3677   70.7238   -3.3450 C.3     1  UNL1        0.1764
     11 O          17.7686   71.2110   -4.6370 O.3     1  UNL1       -0.3308
     12 O          15.4752   69.1944   -3.1036 O.3     1  UNL1       -0.3794
     13 H          15.8098   67.4736   -5.1758 H       1  UNL1        0.2106
     14 H          15.1809   68.2963   -3.3056 H       1  UNL1        0.2105
     15 N          17.6313   70.5408   -6.9276 N.ar    1  UNL1       -0.2551
     16 C          16.8864   70.4674   -8.0444 C.ar    1  UNL1        0.3323
     17 N          17.4582   70.5030   -9.2626 N.ar    1  UNL1       -0.2743
     18 C          18.7974   70.6043   -9.3819 C.ar    1  UNL1        0.2626
     19 C          19.5941   70.6763   -8.2143 C.ar    1  UNL1        0.0795
     20 C          18.9941   70.6439   -7.0051 C.ar    1  UNL1        0.0869
     21 O          15.6773   70.3759   -7.9531 O.2     1  UNL1       -0.2464
     22 O          19.3159   70.6317  -10.4827 O.2     1  UNL1       -0.2670
     23 H          16.9052   70.4537  -10.0575 H       1  UNL1        0.1734
     24 O          21.7218   72.7967   -1.8789 O.3     1  UNL1       -0.2703
     25 P          23.0808   72.3815   -1.1238 P.3     1  UNL1        0.2208
     26 O          24.0755   73.4673   -1.2663 O.2     1  UNL1       -0.5170
     27 O          23.6657   71.0300   -1.7746 O.3     1  UNL1       -0.4371
     28 O          22.7752   72.1352    0.4371 O.3     1  UNL1       -0.2865
     29 C          23.0810   73.3541    1.1167 C.3     1  UNL1        0.2611
     30 C          23.4153   73.0476    2.5776 C.3     1  UNL1        0.1582
     31 C          22.2166   72.3502    3.2305 C.3     1  UNL1        0.1625
     32 C          20.9696   73.2141    3.0143 C.3     1  UNL1        0.1686
     33 C          20.8181   73.5055    1.5199 C.3     1  UNL1        0.1760
     34 O          22.4578   72.1932    4.6300 O.3     1  UNL1       -0.3801
     35 O          19.8161   72.5147    3.4857 O.3     1  UNL1       -0.3794
     36 O          21.9562   74.2280    1.0518 O.3     1  UNL1       -0.3263
     37 H          21.6809   71.7513    4.9995 H       1  UNL1        0.2105
     38 H          19.0556   73.0926    3.3301 H       1  UNL1        0.2105
     39 C          25.8227   72.6996    2.7112 C.2     1  UNL1        0.2231
     40 C          27.0277   71.7962    2.7735 C.3     1  UNL1        0.0946
     41 N          24.5862   72.1703    2.6386 N.am    1  UNL1       -0.2994
     42 O          25.9662   73.9035    2.7258 O.2     1  UNL1       -0.2751
     43 H          24.4712   71.2069    2.6267 H       1  UNL1        0.1496
     44 C          19.5570   74.3408    1.2897 C.3     1  UNL1        0.1693
     45 O          19.2020   75.0118    2.5004 O.3     1  UNL1       -0.3794
     46 H          18.4047   75.5251    2.3124 H       1  UNL1        0.2105
@<TRIPOS>BOND
     1    29    30    1
     2    29    28    1
     3    29    36    1
     4    30    31    1
     5    30    41    1
     6    31    32    1
     7    31    34    1
     8    32    33    1
     9    32    35    1
    10    33    44    1
    11    33    36    1
    12    44    45    1
    13    39    40    1
    14    39    41   am
    15    39    42    2
    16    41    43    1
    17    28    25    1
    18    34    37    1
    19    35    38    1
    20    45    46    1
    21    15    16   ar
    22    15    20   ar
    23    15     6    1
    24    16    17   ar
    25    16    21    2
    26    17    18   ar
    27    17    23    1
    28    18    19   ar
    29    18    22    2
    30    19    20   ar
    31     6     7    1
    32     6    11    1
    33     7     8    1
    34     7     9    1
    35     8    13    1
    36     9    10    1
    37     9    12    1
    38    10    11    1
    39    10     5    1
    40    12    14    1
    41     5     4    1
    42     4     1    1
    43     1     2    2
    44     1     3    1
    45     1    24    1
    46    24    25    1
    47    25    26    2
    48    25    27    1
@<TRIPOS>MOLECULE
UD1
 46 48 0 0 0
SMALL
GASTEIGER

@<TRIPOS>ATOM
      1 P          21.7605   72.4905   -6.4508 P.3     1  UNL1        0.2189
      2 O          20.8767   73.5230   -7.0354 O.2     1  UNL1       -0.5170
      3 O          23.2755   72.7453   -6.9328 O.3     1  UNL1       -0.4371
      4 O          21.2803   71.0338   -6.9410 O.3     1  UNL1       -0.3112
      5 C          20.5638   71.2234   -8.1621 C.3     1  UNL1        0.1811
      6 C          17.3799   70.1002   -6.9256 C.3     1  UNL1        0.2383
      7 C          17.0271   71.1442   -8.0145 C.3     1  UNL1        0.1895
      8 O          15.7860   70.8257   -8.6450 O.3     1  UNL1       -0.3779
      9 C          18.2079   70.9903   -9.0081 C.3     1  UNL1        0.1713
     10 C          19.3203   70.3329   -8.1685 C.3     1  UNL1        0.1764
     11 O          18.8177   70.1854   -6.8295 O.3     1  UNL1       -0.3308
     12 O          17.8350   70.1496  -10.1021 O.3     1  UNL1       -0.3794
     13 H          15.6249   71.5108   -9.3085 H       1  UNL1        0.2106
     14 H          17.0982   70.5856  -10.5507 H       1  UNL1        0.2105
     15 N          16.7557   70.4498   -5.6491 N.ar    1  UNL1       -0.2551
     16 C          16.4212   69.4779   -4.7827 C.ar    1  UNL1        0.3323
     17 N          15.8494   69.7705   -3.5996 N.ar    1  UNL1       -0.2743
     18 C          15.5930   71.0519   -3.2673 C.ar    1  UNL1        0.2626
     19 C          15.9345   72.0846   -4.1728 C.ar    1  UNL1        0.0795
     20 C          16.5120   71.7633   -5.3503 C.ar    1  UNL1        0.0869
     21 O          16.6461   68.3174   -5.0680 O.2     1  UNL1       -0.2464
     22 O          15.0716   71.3173   -2.2001 O.2     1  UNL1       -0.2670
     23 H          15.6191   69.0571   -2.9847 H       1  UNL1        0.1734
     24 O          21.6869   72.5675   -4.8454 O.3     1  UNL1       -0.2703
     25 P          22.9317   73.4673   -4.3656 P.3     1  UNL1        0.2208
     26 O          23.1986   74.5173   -5.3732 O.2     1  UNL1       -0.5170
     27 O          24.2358   72.5373   -4.2024 O.3     1  UNL1       -0.4371
     28 O          22.5850   74.1555   -2.9525 O.3     1  UNL1       -0.2865
     29 C          23.0169   73.2513   -1.9341 C.3     1  UNL1        0.2611
     30 C          21.8462   72.9497   -0.9968 C.3     1  UNL1        0.1582
     31 C          21.3473   74.2613   -0.3799 C.3     1  UNL1        0.1625
     32 C          22.5344   74.9800    0.2699 C.3     1  UNL1        0.1686
     33 C          23.6522   75.1312   -0.7641 C.3     1  UNL1        0.1760
     34 O          20.3551   73.9786    0.6085 O.3     1  UNL1       -0.3801
     35 O          22.1220   76.2712    0.7222 O.3     1  UNL1       -0.3794
     36 O          24.0854   73.8425   -1.1977 O.3     1  UNL1       -0.3263
     37 H          20.0697   74.8293    0.9692 H       1  UNL1        0.2105
     38 H          22.8979   76.6882    1.1228 H       1  UNL1        0.2105
     39 C          20.2535   71.1405   -1.3488 C.2     1  UNL1        0.2231
     40 C          19.1380   70.4925   -2.1286 C.3     1  UNL1        0.0946
     41 N          20.7623   72.3201   -1.7537 N.am    1  UNL1       -0.2994
     42 O          20.6936   70.5996   -0.3569 O.2     1  UNL1       -0.2751
     43 H          20.4104   72.7530   -2.5476 H       1  UNL1        0.1496
     44 C          24.8304   75.8770   -0.1342 C.3     1  UNL1        0.1693
     45 O          25.0045   75.4404    1.2153 O.3     1  UNL1       -0.3794
     46 H          25.7544   75.9336    1.5744 H       1  UNL1        0.2105
@<TRIPOS>BOND
     1    29    30    1
     2    29    28    1
     3    29    36    1
     4    30    31    1
     5    30    41    1
     6    31    32    1
     7    31    34    1
     8    32    33    1
     9    32    35    1
    10    33    44    1
    11    33    36    1
    12    44    45    1
    13    39    40    1
    14    39    41   am
    15    39    42    2
    16    41    43    1
    17    28    25    1
    18    34    37    1
    19    35    38    1
    20    45    46    1
    21    15    16   ar
    22    15    20   ar
    23    15     6    1
    24    16    17   ar
    25    16    21    2
    26    17    18   ar
    27    17    23    1
    28    18    19   ar
    29    18    22    2
    30    19    20   ar
    31     6     7    1
    32     6    11    1
    33     7     8    1
    34     7     9    1
    35     8    13    1
    36     9    10    1
    37     9    12    1
    38    10    11    1
    39    10     5    1
    40    12    14    1
    41     5     4    1
    42     4     1    1
    43     1     2    2
    44     1     3    1
    45     1    24    1
    46    24    25    1
    47    25    26    2
    48    25    27    1
@<TRIPOS>MOLECULE
UD1
 46 48 0 0 0
SMALL
GASTEIGER

@<TRIPOS>ATOM
      1 P          21.7824   72.1551   -6.1970 P.3     1  UNL1        0.2189
      2 O          20.7738   73.2129   -6.4262 O.2     1  UNL1       -0.5170
      3 O          23.2165   72.6561   -6.7310 O.3     1  UNL1       -0.4371
      4 O          21.3511   70.8221   -6.9907 O.3     1  UNL1       -0.3112
      5 C          20.4917   71.2338   -8.0548 C.3     1  UNL1        0.1811
      6 C          17.2935   70.1120   -6.8548 C.3     1  UNL1        0.2383
      7 C          16.9536   71.1630   -7.9410 C.3     1  UNL1        0.1895
      8 O          15.7177   70.8514   -8.5849 O.3     1  UNL1       -0.3779
      9 C          18.1434   71.0116   -8.9242 C.3     1  UNL1        0.1713
     10 C          19.2461   70.3466   -8.0780 C.3     1  UNL1        0.1764
     11 O          18.7305   70.1929   -6.7446 O.3     1  UNL1       -0.3308
     12 O          17.7786   70.1782  -10.0265 O.3     1  UNL1       -0.3794
     13 H          15.5646   71.5406   -9.2460 H       1  UNL1        0.2106
     14 H          17.0472   70.6186  -10.4796 H       1  UNL1        0.2105
     15 N          16.6581   70.4560   -5.5823 N.ar    1  UNL1       -0.2551
     16 C          16.3457   69.4828   -4.7089 C.ar    1  UNL1        0.3323
     17 N          15.7643   69.7705   -3.5293 N.ar    1  UNL1       -0.2743
     18 C          15.4760   71.0477   -3.2075 C.ar    1  UNL1        0.2626
     19 C          15.7940   72.0815   -4.1202 C.ar    1  UNL1        0.0795
     20 C          16.3817   71.7653   -5.2941 C.ar    1  UNL1        0.0869
     21 O          16.5995   68.3261   -4.9848 O.2     1  UNL1       -0.2464
     22 O          14.9460   71.3085   -2.1433 O.2     1  UNL1       -0.2670
     23 H          15.5502   69.0564   -2.9093 H       1  UNL1        0.1734
     24 O          21.8767   71.8354   -4.6229 O.3     1  UNL1       -0.2703
     25 P          22.8534   72.9417   -3.9815 P.3     1  UNL1        0.2208
     26 O          24.2609   72.5655   -4.2388 O.2     1  UNL1       -0.5170
     27 O          22.6024   73.0240   -2.3933 O.3     1  UNL1       -0.4371
     28 O          22.5513   74.3761   -4.6461 O.3     1  UNL1       -0.2865
     29 C          23.6094   75.2490   -4.2467 C.3     1  UNL1        0.2611
     30 C          23.0142   76.5025   -3.6030 C.3     1  UNL1        0.1582
     31 C          22.0931   77.1957   -4.6132 C.3     1  UNL1        0.1625
     32 C          22.8780   77.4371   -5.9069 C.3     1  UNL1        0.1686
     33 C          23.4811   76.1123   -6.3786 C.3     1  UNL1        0.1760
     34 O          21.6491   78.4440   -4.0785 O.3     1  UNL1       -0.3801
     35 O          21.9991   77.9481   -6.9109 O.3     1  UNL1       -0.3794
     36 O          24.3806   75.6128   -5.3897 O.3     1  UNL1       -0.3263
     37 H          21.0739   78.8446   -4.7448 H       1  UNL1        0.2105
     38 H          22.5327   78.0847   -7.7066 H       1  UNL1        0.2105
     39 C          22.7027   76.4359   -1.1878 C.2     1  UNL1        0.2231
     40 C          21.9102   76.0467    0.0340 C.3     1  UNL1        0.0946
     41 N          22.2445   76.1251   -2.4158 N.am    1  UNL1       -0.2994
     42 O          23.7535   77.0283   -1.0656 O.2     1  UNL1       -0.2751
     43 H          21.4037   75.6508   -2.5139 H       1  UNL1        0.1496
     44 C          24.2403   76.3365   -7.6880 C.3     1  UNL1        0.1693
     45 O          25.6110   75.9725   -7.5126 O.3     1  UNL1       -0.3794
     46 H          26.0524   76.1288   -8.3584 H       1  UNL1        0.2105
@<TRIPOS>BOND
     1    29    30    1
     2    29    28    1
     3    29    36    1
     4    30    31    1
     5    30    41    1
     6    31    32    1
     7    31    34    1
     8    32    33    1
     9    32    35    1
    10    33    44    1
    11    33    36    1
    12    44    45    1
    13    39    40    1
    14    39    41   am
    15    39    42    2
    16    41    43    1
    17    28    25    1
    18    34    37    1
    19    35    38    1
    20    45    46    1
    21    15    16   ar
    22    15    20   ar
    23    15     6    1
    24    16    17   ar
    25    16    21    2
    26    17    18   ar
    27    17    23    1
    28    18    19   ar
    29    18    22    2
    30    19    20   ar
    31     6     7    1
    32     6    11    1
    33     7     8    1
    34     7     9    1
    35     8    13    1
    36     9    10    1
    37     9    12    1
    38    10    11    1
    39    10     5    1
    40    12    14    1
    41     5     4    1
    42     4     1    1
    43     1     2    2
    44     1     3    1
    45     1    24    1
    46    24    25    1
    47    25    26    2
    48    25    27    1
@<TRIPOS>MOLECULE
UD1
 46 48 0 0 0
SMALL
GASTEIGER

@<TRIPOS>ATOM
      1 P          20.7973   72.0732   -1.8225 P.3     1  UNL1        0.2189
      2 O          21.6022   73.0963   -2.5255 O.2     1  UNL1       -0.5170
      3 O          21.3427   70.6067   -2.2025 O.3     1  UNL1       -0.4371
      4 O          19.2558   72.2038   -2.2694 O.3     1  UNL1       -0.3112
      5 C          18.7335   70.8765   -2.3467 C.3     1  UNL1        0.1811
      6 C          17.0656   70.5979   -5.5197 C.3     1  UNL1        0.2383
      7 C          17.0476   69.1596   -4.9440 C.3     1  UNL1        0.1895
      8 O          15.8923   68.4464   -5.3866 O.3     1  UNL1       -0.3779
      9 C          16.9851   69.4210   -3.4166 C.3     1  UNL1        0.1713
     10 C          17.5080   70.8622   -3.2617 C.3     1  UNL1        0.1764
     11 O          17.8706   71.3308   -4.5718 O.3     1  UNL1       -0.3308
     12 O          15.6397   69.3167   -2.9457 O.3     1  UNL1       -0.3794
     13 H          15.9414   67.5632   -4.9954 H       1  UNL1        0.2106
     14 H          15.3506   68.4120   -3.1245 H       1  UNL1        0.2105
     15 N          17.6832   70.6187   -6.8462 N.ar    1  UNL1       -0.2551
     16 C          16.9162   70.4724   -7.9406 C.ar    1  UNL1        0.3323
     17 N          17.4566   70.4915   -9.1734 N.ar    1  UNL1       -0.2743
     18 C          18.7865   70.6495   -9.3299 C.ar    1  UNL1        0.2626
     19 C          19.6064   70.7985   -8.1861 C.ar    1  UNL1        0.0795
     20 C          19.0375   70.7810   -6.9616 C.ar    1  UNL1        0.0869
     21 O          15.7152   70.3291   -7.8157 O.2     1  UNL1       -0.2464
     22 O          19.2768   70.6620  -10.4438 O.2     1  UNL1       -0.2670
     23 H          16.8878   70.3893   -9.9519 H       1  UNL1        0.1734
     24 O          20.9158   72.2958   -0.2334 O.3     1  UNL1       -0.2703
     25 P          22.1480   71.3926    0.2719 P.3     1  UNL1        0.2208
     26 O          23.0276   71.0730   -0.8739 O.2     1  UNL1       -0.5170
     27 O          21.5858   70.0270    0.9132 O.3     1  UNL1       -0.4371
     28 O          22.9866   72.2001    1.3832 O.3     1  UNL1       -0.2865
     29 C          22.4828   73.5370    1.3923 C.3     1  UNL1        0.2611
     30 C          23.5774   74.4926    0.9141 C.3     1  UNL1        0.1582
     31 C          24.7927   74.3660    1.8396 C.3     1  UNL1        0.1625
     32 C          24.3312   74.5747    3.2859 C.3     1  UNL1        0.1686
     33 C          23.1815   73.6106    3.5861 C.3     1  UNL1        0.1760
     34 O          25.7622   75.3574    1.4951 O.3     1  UNL1       -0.3801
     35 O          25.4183   74.3165    4.1764 O.3     1  UNL1       -0.3794
     36 O          22.0835   73.8839    2.7166 O.3     1  UNL1       -0.3263
     37 H          26.5076   75.2414    2.1004 H       1  UNL1        0.2105
     38 H          25.0846   74.4584    5.0737 H       1  UNL1        0.2105
     39 C          24.2309   75.1209   -1.3469 C.2     1  UNL1        0.2231
     40 C          24.6297   74.7649   -2.7564 C.3     1  UNL1        0.0946
     41 N          23.9654   74.1472   -0.4550 N.am    1  UNL1       -0.2994
     42 O          24.1483   76.2844   -1.0158 O.2     1  UNL1       -0.2751
     43 H          24.0312   73.2160   -0.7198 H       1  UNL1        0.1496
     44 C          22.7347   73.7884    5.0387 C.3     1  UNL1        0.1693
     45 O          22.2814   72.5353    5.5548 O.3     1  UNL1       -0.3794
     46 H          22.0096   72.6912    6.4694 H       1  UNL1        0.2105
@<TRIPOS>BOND
     1    29    30    1
     2    29    28    1
     3    29    36    1
     4    30    31    1
     5    30    41    1
     6    31    32    1
     7    31    34    1
     8    32    33    1
     9    32    35    1
    10    33    44    1
    11    33    36    1
    12    44    45    1
    13    39    40    1
    14    39    41   am
    15    39    42    2
    16    41    43    1
    17    28    25    1
    18    34    37    1
    19    35    38    1
    20    45    46    1
    21    15    16   ar
    22    15    20   ar
    23    15     6    1
    24    16    17   ar
    25    16    21    2
    26    17    18   ar
    27    17    23    1
    28    18    19   ar
    29    18    22    2
    30    19    20   ar
    31     6     7    1
    32     6    11    1
    33     7     8    1
    34     7     9    1
    35     8    13    1
    36     9    10    1
    37     9    12    1
    38    10    11    1
    39    10     5    1
    40    12    14    1
    41     5     4    1
    42     4     1    1
    43     1     2    2
    44     1     3    1
    45     1    24    1
    46    24    25    1
    47    25    26    2
    48    25    27    1
@<TRIPOS>MOLECULE
UD1
 46 48 0 0 0
SMALL
GASTEIGER

@<TRIPOS>ATOM
      1 P          16.4255   69.7479   -2.8025 P.3     1  UNL1        0.2189
      2 O          15.9705   68.9654   -3.9727 O.2     1  UNL1       -0.5170
      3 O          17.3552   68.8238   -1.8674 O.3     1  UNL1       -0.4371
      4 O          15.1466   70.2464   -1.9607 O.3     1  UNL1       -0.3112
      5 C          14.9609   69.3110   -0.8973 C.3     1  UNL1        0.1811
      6 C          12.1370   68.1646    1.0102 C.3     1  UNL1        0.2383
      7 C          12.4362   69.5776    1.5707 C.3     1  UNL1        0.1895
      8 O          11.2406   70.2088    2.0306 O.3     1  UNL1       -0.3779
      9 C          13.0040   70.3081    0.3261 C.3     1  UNL1        0.1713
     10 C          13.4678   69.1663   -0.5989 C.3     1  UNL1        0.1764
     11 O          13.2248   67.9286    0.0913 O.3     1  UNL1       -0.3308
     12 O          11.9859   71.0887   -0.3037 O.3     1  UNL1       -0.3794
     13 H          11.4947   71.0798    2.3657 H       1  UNL1        0.2106
     14 H          11.6962   71.7449    0.3441 H       1  UNL1        0.2105
     15 N          12.1418   67.1687    2.0825 N.ar    1  UNL1       -0.2551
     16 C          13.3096   66.6675    2.5209 C.ar    1  UNL1        0.3323
     17 N          13.3443   65.7533    3.5085 N.ar    1  UNL1       -0.2743
     18 C          12.1993   65.3164    4.0706 C.ar    1  UNL1        0.2626
     19 C          10.9625   65.8314    3.6145 C.ar    1  UNL1        0.0795
     20 C          10.9569   66.7515    2.6262 C.ar    1  UNL1        0.0869
     21 O          14.3508   67.0516    2.0240 O.2     1  UNL1       -0.2464
     22 O          12.2292   64.4864    4.9603 O.2     1  UNL1       -0.2670
     23 H          14.1959   65.4060    3.8156 H       1  UNL1        0.1734
     24 O          17.2676   71.0237   -3.3046 O.3     1  UNL1       -0.2703
     25 P          18.8137   70.5784   -3.3328 P.3     1  UNL1        0.2208
     26 O          18.9104   69.1575   -3.7333 O.2     1  UNL1       -0.5170
     27 O          19.4540   70.7671   -1.8677 O.3     1  UNL1       -0.4371
     28 O          19.6166   71.4894   -4.3892 O.3     1  UNL1       -0.2865
     29 C          20.7503   70.7305   -4.8135 C.3     1  UNL1        0.2611
     30 C          22.0181   71.5634   -4.6164 C.3     1  UNL1        0.1582
     31 C          21.8988   72.8578   -5.4286 C.3     1  UNL1        0.1625
     32 C          21.5755   72.4963   -6.8822 C.3     1  UNL1        0.1686
     33 C          20.3390   71.5953   -6.9085 C.3     1  UNL1        0.1760
     34 O          23.1341   73.5736   -5.3731 O.3     1  UNL1       -0.3801
     35 O          21.3155   73.6890   -7.6249 O.3     1  UNL1       -0.3794
     36 O          20.6047   70.3909   -6.1907 O.3     1  UNL1       -0.3263
     37 H          23.0143   74.3786   -5.8955 H       1  UNL1        0.2105
     38 H          21.1163   73.4160   -8.5317 H       1  UNL1        0.2105
     39 C          23.2812   71.4967   -2.5344 C.2     1  UNL1        0.2231
     40 C          23.4426   71.8302   -1.0733 C.3     1  UNL1        0.0946
     41 N          22.1756   71.8876   -3.1971 N.am    1  UNL1       -0.2994
     42 O          24.1465   70.8755   -3.1137 O.2     1  UNL1       -0.2751
     43 H          21.4828   72.3845   -2.7337 H       1  UNL1        0.1496
     44 C          19.9884   71.2549   -8.3585 C.3     1  UNL1        0.1693
     45 O          19.7894   69.8452   -8.4824 O.3     1  UNL1       -0.3794
     46 H          19.5714   69.6738   -9.4086 H       1  UNL1        0.2105
@<TRIPOS>BOND
     1    29    30    1
     2    29    28    1
     3    29    36    1
     4    30    31    1
     5    30    41    1
     6    31    32    1
     7    31    34    1
     8    32    33    1
     9    32    35    1
    10    33    44    1
    11    33    36    1
    12    44    45    1
    13    39    40    1
    14    39    41   am
    15    39    42    2
    16    41    43    1
    17    28    25    1
    18    34    37    1
    19    35    38    1
    20    45    46    1
    21    15    16   ar
    22    15    20   ar
    23    15     6    1
    24    16    17   ar
    25    16    21    2
    26    17    18   ar
    27    17    23    1
    28    18    19   ar
    29    18    22    2
    30    19    20   ar
    31     6     7    1
    32     6    11    1
    33     7     8    1
    34     7     9    1
    35     8    13    1
    36     9    10    1
    37     9    12    1
    38    10    11    1
    39    10     5    1
    40    12    14    1
    41     5     4    1
    42     4     1    1
    43     1     2    2
    44     1     3    1
    45     1    24    1
    46    24    25    1
    47    25    26    2
    48    25    27    1
@<TRIPOS>MOLECULE
UD1
 46 48 0 0 0
SMALL
GASTEIGER

@<TRIPOS>ATOM
      1 P          21.7594   73.1865   -4.2924 P.3     1  UNL1        0.2189
      2 O          21.5669   71.7201   -4.2578 O.2     1  UNL1       -0.5170
      3 O          22.6292   73.5833   -5.5880 O.3     1  UNL1       -0.4371
      4 O          22.5349   73.6570   -2.9620 O.3     1  UNL1       -0.3112
      5 C          21.6823   73.3538   -1.8568 C.3     1  UNL1        0.1811
      6 C          23.7114   71.8795    0.7193 C.3     1  UNL1        0.2383
      7 C          22.3116   72.0297    1.3660 C.3     1  UNL1        0.1895
      8 O          22.0807   71.0013    2.3295 O.3     1  UNL1       -0.3779
      9 C          21.3695   71.8657    0.1451 C.3     1  UNL1        0.1713
     10 C          22.2677   72.1827   -1.0661 C.3     1  UNL1        0.1764
     11 O          23.5654   72.5362   -0.5578 O.3     1  UNL1       -0.3308
     12 O          20.8739   70.5271    0.0717 O.3     1  UNL1       -0.3794
     13 H          21.1972   71.1515    2.6933 H       1  UNL1        0.2106
     14 H          20.3719   70.3704    0.8826 H       1  UNL1        0.2105
     15 N          24.7318   72.5462    1.5289 N.ar    1  UNL1       -0.2551
     16 C          25.4933   71.8235    2.3687 C.ar    1  UNL1        0.3323
     17 N          26.4421   72.4097    3.1226 N.ar    1  UNL1       -0.2743
     18 C          26.6383   73.7419    3.0530 C.ar    1  UNL1        0.2626
     19 C          25.8397   74.5156    2.1776 C.ar    1  UNL1        0.0795
     20 C          24.8988   73.9012    1.4289 C.ar    1  UNL1        0.0869
     21 O          25.3283   70.6210    2.4425 O.2     1  UNL1       -0.2464
     22 O          27.4926   74.2736    3.7377 O.2     1  UNL1       -0.2670
     23 H          26.9854   71.8723    3.7194 H       1  UNL1        0.1734
     24 O          20.3262   73.9144   -4.3636 O.3     1  UNL1       -0.2703
     25 P          19.6797   73.5299   -5.7862 P.3     1  UNL1        0.2208
     26 O          20.7349   73.0089   -6.6827 O.2     1  UNL1       -0.5170
     27 O          19.0146   74.8395   -6.4457 O.3     1  UNL1       -0.4371
     28 O          18.5494   72.4035   -5.5765 O.3     1  UNL1       -0.2865
     29 C          18.9246   71.2848   -6.3820 C.3     1  UNL1        0.2611
     30 C          17.7322   70.8572   -7.2395 C.3     1  UNL1        0.1582
     31 C          16.5595   70.4940   -6.3217 C.3     1  UNL1        0.1625
     32 C          17.0376   69.4527   -5.3042 C.3     1  UNL1        0.1686
     33 C          18.2809   69.9877   -4.5905 C.3     1  UNL1        0.1760
     34 O          15.4917   69.9517   -7.1009 O.3     1  UNL1       -0.3801
     35 O          16.0039   69.2088   -4.3484 O.3     1  UNL1       -0.3794
     36 O          19.3245   70.2066   -5.5388 O.3     1  UNL1       -0.3263
     37 H          14.7770   69.7381   -6.4853 H       1  UNL1        0.2105
     38 H          16.3465   68.5498   -3.7280 H       1  UNL1        0.2105
     39 C          16.3409   72.7868   -7.7639 C.2     1  UNL1        0.2231
     40 C          15.9395   73.9212   -8.6718 C.3     1  UNL1        0.0946
     41 N          17.3422   71.9596   -8.1209 N.am    1  UNL1       -0.2994
     42 O          15.7619   72.6182   -6.7120 O.2     1  UNL1       -0.2751
     43 H          17.8056   72.0942   -8.9627 H       1  UNL1        0.1496
     44 C          18.7475   68.9687   -3.5488 C.3     1  UNL1        0.1693
     45 O          18.2036   69.3091   -2.2719 O.3     1  UNL1       -0.3794
     46 H          18.5214   68.6441   -1.6462 H       1  UNL1        0.2105
@<TRIPOS>BOND
     1    29    30    1
     2    29    28    1
     3    29    36    1
     4    30    31    1
     5    30    41    1
     6    31    32    1
     7    31    34    1
     8    32    33    1
     9    32    35    1
    10    33    44    1
    11    33    36    1
    12    44    45    1
    13    39    40    1
    14    39    41   am
    15    39    42    2
    16    41    43    1
    17    28    25    1
    18    34    37    1
    19    35    38    1
    20    45    46    1
    21    15    16   ar
    22    15    20   ar
    23    15     6    1
    24    16    17   ar
    25    16    21    2
    26    17    18   ar
    27    17    23    1
    28    18    19   ar
    29    18    22    2
    30    19    20   ar
    31     6     7    1
    32     6    11    1
    33     7     8    1
    34     7     9    1
    35     8    13    1
    36     9    10    1
    37     9    12    1
    38    10    11    1
    39    10     5    1
    40    12    14    1
    41     5     4    1
    42     4     1    1
    43     1     2    2
    44     1     3    1
    45     1    24    1
    46    24    25    1
    47    25    26    2
    48    25    27    1
@<TRIPOS>MOLECULE
UD1
 46 48 0 0 0
SMALL
GASTEIGER

@<TRIPOS>ATOM
      1 P          16.7402   69.6704   -2.4778 P.3     1  UNL1        0.2189
      2 O          16.7393   71.0583   -1.9657 O.2     1  UNL1       -0.5170
      3 O          16.0318   69.6312   -3.9232 O.3     1  UNL1       -0.4371
      4 O          15.9305   68.7224   -1.4586 O.3     1  UNL1       -0.3112
      5 C          15.0224   69.5626   -0.7446 C.3     1  UNL1        0.1811
      6 C          12.7236   67.7843    1.3720 C.3     1  UNL1        0.2383
      7 C          12.2282   69.2518    1.4076 C.3     1  UNL1        0.1895
      8 O          10.8125   69.3092    1.5859 O.3     1  UNL1       -0.3779
      9 C          12.6300   69.7652    0.0004 C.3     1  UNL1        0.1713
     10 C          13.7346   68.7910   -0.4523 C.3     1  UNL1        0.1764
     11 O          13.9547   67.8616    0.6224 O.3     1  UNL1       -0.3308
     12 O          11.5125   69.7130   -0.8892 O.3     1  UNL1       -0.3794
     13 H          10.5697   70.2453    1.5998 H       1  UNL1        0.2106
     14 H          10.8349   70.2955   -0.5208 H       1  UNL1        0.2105
     15 N          12.9737   67.2876    2.7256 N.ar    1  UNL1       -0.2551
     16 C          12.9177   65.9671    2.9717 C.ar    1  UNL1        0.3323
     17 N          13.1472   65.4818    4.2062 N.ar    1  UNL1       -0.2743
     18 C          13.4298   66.3197    5.2240 C.ar    1  UNL1        0.2626
     19 C          13.4861   67.7127    4.9802 C.ar    1  UNL1        0.0795
     20 C          13.2570   68.1720    3.7313 C.ar    1  UNL1        0.0869
     21 O          12.6640   65.1987    2.0641 O.2     1  UNL1       -0.2464
     22 O          13.6328   65.8824    6.3416 O.2     1  UNL1       -0.2670
     23 H          13.1074   64.5261    4.3648 H       1  UNL1        0.1734
     24 O          18.2561   69.1472   -2.6077 O.3     1  UNL1       -0.2703
     25 P          19.1727   70.4411   -2.8814 P.3     1  UNL1        0.2208
     26 O          20.5790   70.0196   -3.0640 O.2     1  UNL1       -0.5170
     27 O          19.0728   71.4455   -1.6270 O.3     1  UNL1       -0.4371
     28 O          18.6607   71.1917   -4.2100 O.3     1  UNL1       -0.2865
     29 C          19.4158   70.6632   -5.3016 C.3     1  UNL1        0.2611
     30 C          20.2568   71.7805   -5.9217 C.3     1  UNL1        0.1582
     31 C          19.3270   72.9015   -6.3994 C.3     1  UNL1        0.1625
     32 C          18.2640   72.2967   -7.3225 C.3     1  UNL1        0.1686
     33 C          17.5711   71.1423   -6.5955 C.3     1  UNL1        0.1760
     34 O          20.0846   73.8805   -7.1129 O.3     1  UNL1       -0.3801
     35 O          17.3010   73.2962   -7.6619 O.3     1  UNL1       -0.3794
     36 O          18.5255   70.1295   -6.2793 O.3     1  UNL1       -0.3263
     37 H          19.4620   74.5652   -7.3939 H       1  UNL1        0.2105
     38 H          16.6517   72.8736   -8.2418 H       1  UNL1        0.2105
     39 C          22.4723   72.5373   -5.2485 C.2     1  UNL1        0.2231
     40 C          23.4288   73.0792   -4.2171 C.3     1  UNL1        0.0946
     41 N          21.1863   72.3073   -4.9203 N.am    1  UNL1       -0.2994
     42 O          22.8604   72.3077   -6.3740 O.2     1  UNL1       -0.2751
     43 H          20.8755   72.4908   -4.0196 H       1  UNL1        0.1496
     44 C          16.4850   70.5519   -7.4971 C.3     1  UNL1        0.1693
     45 O          16.9119   70.6117   -8.8596 O.3     1  UNL1       -0.3794
     46 H          16.2007   70.2312   -9.3926 H       1  UNL1        0.2105
@<TRIPOS>BOND
     1    29    30    1
     2    29    28    1
     3    29    36    1
     4    30    31    1
     5    30    41    1
     6    31    32    1
     7    31    34    1
     8    32    33    1
     9    32    35    1
    10    33    44    1
    11    33    36    1
    12    44    45    1
    13    39    40    1
    14    39    41   am
    15    39    42    2
    16    41    43    1
    17    28    25    1
    18    34    37    1
    19    35    38    1
    20    45    46    1
    21    15    16   ar
    22    15    20   ar
    23    15     6    1
    24    16    17   ar
    25    16    21    2
    26    17    18   ar
    27    17    23    1
    28    18    19   ar
    29    18    22    2
    30    19    20   ar
    31     6     7    1
    32     6    11    1
    33     7     8    1
    34     7     9    1
    35     8    13    1
    36     9    10    1
    37     9    12    1
    38    10    11    1
    39    10     5    1
    40    12    14    1
    41     5     4    1
    42     4     1    1
    43     1     2    2
    44     1     3    1
    45     1    24    1
    46    24    25    1
    47    25    26    2
    48    25    27    1
@<TRIPOS>MOLECULE
UD1
 46 48 0 0 0
SMALL
GASTEIGER

@<TRIPOS>ATOM
      1 P          22.7054   71.7080   -2.4304 P.3     1  UNL1        0.2189
      2 O          23.9075   71.4498   -3.2532 O.2     1  UNL1       -0.5170
      3 O          22.6059   73.2817   -2.1046 O.3     1  UNL1       -0.4371
      4 O          22.8112   70.8814   -1.0526 O.3     1  UNL1       -0.3112
      5 C          21.5106   70.8930   -0.4621 C.3     1  UNL1        0.1811
      6 C          23.2734   71.9322    2.4943 C.3     1  UNL1        0.2383
      7 C          22.6578   73.2373    1.9305 C.3     1  UNL1        0.1895
      8 O          22.3560   74.1557    2.9815 O.3     1  UNL1       -0.3779
      9 C          21.3596   72.7207    1.2574 C.3     1  UNL1        0.1713
     10 C          21.6285   71.2210    1.0271 C.3     1  UNL1        0.1764
     11 O          22.9646   70.9491    1.4834 O.3     1  UNL1       -0.3308
     12 O          20.2383   72.9073    2.1238 O.3     1  UNL1       -0.3794
     13 H          21.9783   74.9431    2.5657 H       1  UNL1        0.2106
     14 H          20.1591   73.8583    2.2771 H       1  UNL1        0.2105
     15 N          24.7213   72.0686    2.6563 N.ar    1  UNL1       -0.2551
     16 C          25.5091   70.9847    2.5470 C.ar    1  UNL1        0.3323
     17 N          26.8444   71.0813    2.6874 N.ar    1  UNL1       -0.2743
     18 C          27.4154   72.2739    2.9510 C.ar    1  UNL1        0.2626
     19 C          26.5973   73.4221    3.0746 C.ar    1  UNL1        0.0795
     20 C          25.2613   73.2977    2.9237 C.ar    1  UNL1        0.0869
     21 O          25.0090   69.9021    2.3094 O.2     1  UNL1       -0.2464
     22 O          28.6222   72.3616    3.0829 O.2     1  UNL1       -0.2670
     23 H          27.3979   70.2899    2.6006 H       1  UNL1        0.1734
     24 O          21.3932   71.2418   -3.2363 O.3     1  UNL1       -0.2703
     25 P          20.6874   72.5783   -3.7883 P.3     1  UNL1        0.2208
     26 O          21.7212   73.5910   -4.0958 O.2     1  UNL1       -0.5170
     27 O          19.6852   73.1582   -2.6696 O.3     1  UNL1       -0.4371
     28 O          19.8576   72.2359   -5.1243 O.3     1  UNL1       -0.2865
     29 C          20.1598   70.8816   -5.4642 C.3     1  UNL1        0.2611
     30 C          20.5688   70.8096   -6.9365 C.3     1  UNL1        0.1582
     31 C          19.4211   71.3416   -7.8021 C.3     1  UNL1        0.1625
     32 C          18.1418   70.5786   -7.4428 C.3     1  UNL1        0.1686
     33 C          17.9142   70.6706   -5.9325 C.3     1  UNL1        0.1760
     34 O          19.7302   71.1416   -9.1827 O.3     1  UNL1       -0.3801
     35 O          17.0311   71.1569   -8.1310 O.3     1  UNL1       -0.3794
     36 O          19.0090   70.0692   -5.2424 O.3     1  UNL1       -0.3263
     37 H          18.9837   71.4899   -9.6894 H       1  UNL1        0.2105
     38 H          16.2484   70.6480   -7.8762 H       1  UNL1        0.2105
     39 C          21.6461   72.9392   -7.4249 C.2     1  UNL1        0.2231
     40 C          22.8782   73.7784   -7.6482 C.3     1  UNL1        0.0946
     41 N          21.7654   71.6254   -7.1529 N.am    1  UNL1       -0.2994
     42 O          20.5468   73.4466   -7.4908 O.2     1  UNL1       -0.2751
     43 H          22.6450   71.2191   -7.1004 H       1  UNL1        0.1496
     44 C          16.6210   69.9389   -5.5673 C.3     1  UNL1        0.1693
     45 O          15.9916   70.6023   -4.4692 O.3     1  UNL1       -0.3794
     46 H          15.1831   70.1106   -4.2714 H       1  UNL1        0.2105
@<TRIPOS>BOND
     1    29    30    1
     2    29    28    1
     3    29    36    1
     4    30    31    1
     5    30    41    1
     6    31    32    1
     7    31    34    1
     8    32    33    1
     9    32    35    1
    10    33    44    1
    11    33    36    1
    12    44    45    1
    13    39    40    1
    14    39    41   am
    15    39    42    2
    16    41    43    1
    17    28    25    1
    18    34    37    1
    19    35    38    1
    20    45    46    1
    21    15    16   ar
    22    15    20   ar
    23    15     6    1
    24    16    17   ar
    25    16    21    2
    26    17    18   ar
    27    17    23    1
    28    18    19   ar
    29    18    22    2
    30    19    20   ar
    31     6     7    1
    32     6    11    1
    33     7     8    1
    34     7     9    1
    35     8    13    1
    36     9    10    1
    37     9    12    1
    38    10    11    1
    39    10     5    1
    40    12    14    1
    41     5     4    1
    42     4     1    1
    43     1     2    2
    44     1     3    1
    45     1    24    1
    46    24    25    1
    47    25    26    2
    48    25    27    1
@<TRIPOS>MOLECULE
UD1
 46 48 0 0 0
SMALL
GASTEIGER

@<TRIPOS>ATOM
      1 P          21.7745   72.4409   -5.6489 P.3     1  UNL1        0.2189
      2 O          21.6256   71.7417   -6.9442 O.2     1  UNL1       -0.5170
      3 O          23.0636   73.4040   -5.7039 O.3     1  UNL1       -0.4371
      4 O          21.9654   71.3570   -4.4735 O.3     1  UNL1       -0.3112
      5 C          22.4563   72.0645   -3.3338 C.3     1  UNL1        0.1811
      6 C          23.0535   71.2061    0.1062 C.3     1  UNL1        0.2383
      7 C          21.7306   72.0119    0.1312 C.3     1  UNL1        0.1895
      8 O          20.8846   71.5728    1.1946 O.3     1  UNL1       -0.3779
      9 C          21.1116   71.6647   -1.2477 C.3     1  UNL1        0.1713
     10 C          22.3124   71.1890   -2.0880 C.3     1  UNL1        0.1764
     11 O          23.4864   71.3105   -1.2669 O.3     1  UNL1       -0.3308
     12 O          20.1427   70.6226   -1.1131 O.3     1  UNL1       -0.3794
     13 H          20.0825   72.1118    1.1553 H       1  UNL1        0.2106
     14 H          19.4493   70.9596   -0.5303 H       1  UNL1        0.2105
     15 N          24.0419   71.8021    1.0058 N.ar    1  UNL1       -0.2551
     16 C          24.7926   71.0093    1.7901 C.ar    1  UNL1        0.3323
     17 N          25.7121   71.5298    2.6243 N.ar    1  UNL1       -0.2743
     18 C          25.8889   72.8647    2.6929 C.ar    1  UNL1        0.2626
     19 C          25.1012   73.7113    1.8770 C.ar    1  UNL1        0.0795
     20 C          24.1899   73.1624    1.0455 C.ar    1  UNL1        0.0869
     21 O          24.6448   69.8034    1.7396 O.2     1  UNL1       -0.2464
     22 O          26.7166   73.3367    3.4502 O.2     1  UNL1       -0.2670
     23 H          26.2481   70.9428    3.1794 H       1  UNL1        0.1734
     24 O          20.4585   73.3201   -5.3592 O.3     1  UNL1       -0.2703
     25 P          19.2298   72.2892   -5.2298 P.3     1  UNL1        0.2208
     26 O          18.8963   72.0963   -3.8014 O.2     1  UNL1       -0.5170
     27 O          19.6440   70.8753   -5.8790 O.3     1  UNL1       -0.4371
     28 O          17.9486   72.8792   -6.0050 O.3     1  UNL1       -0.2865
     29 C          17.0796   71.7763   -6.2688 C.3     1  UNL1        0.2611
     30 C          16.5302   71.8952   -7.6915 C.3     1  UNL1        0.1582
     31 C          15.7764   73.2228   -7.8284 C.3     1  UNL1        0.1625
     32 C          14.7270   73.3077   -6.7150 C.3     1  UNL1        0.1686
     33 C          15.4131   73.0852   -5.3655 C.3     1  UNL1        0.1760
     34 O          15.1329   73.2788   -9.1028 O.3     1  UNL1       -0.3801
     35 O          14.1135   74.5979   -6.7339 O.3     1  UNL1       -0.3794
     36 O          16.0036   71.7865   -5.3331 O.3     1  UNL1       -0.3263
     37 H          14.6724   74.1281   -9.1462 H       1  UNL1        0.2105
     38 H          13.4619   74.6083   -6.0185 H       1  UNL1        0.2105
     39 C          18.1534   70.6773   -9.0393 C.2     1  UNL1        0.2231
     40 C          19.2937   70.6404  -10.0244 C.3     1  UNL1        0.0946
     41 N          17.6377   71.8588   -8.6489 N.am    1  UNL1       -0.2994
     42 O          17.7003   69.6431   -8.5973 O.2     1  UNL1       -0.2751
     43 H          18.0002   72.6866   -9.0023 H       1  UNL1        0.1496
     44 C          14.3788   73.2003   -4.2439 C.3     1  UNL1        0.1693
     45 O          14.4433   72.0381   -3.4148 O.3     1  UNL1       -0.3794
     46 H          13.7773   72.1506   -2.7231 H       1  UNL1        0.2105
@<TRIPOS>BOND
     1    29    30    1
     2    29    28    1
     3    29    36    1
     4    30    31    1
     5    30    41    1
     6    31    32    1
     7    31    34    1
     8    32    33    1
     9    32    35    1
    10    33    44    1
    11    33    36    1
    12    44    45    1
    13    39    40    1
    14    39    41   am
    15    39    42    2
    16    41    43    1
    17    28    25    1
    18    34    37    1
    19    35    38    1
    20    45    46    1
    21    15    16   ar
    22    15    20   ar
    23    15     6    1
    24    16    17   ar
    25    16    21    2
    26    17    18   ar
    27    17    23    1
    28    18    19   ar
    29    18    22    2
    30    19    20   ar
    31     6     7    1
    32     6    11    1
    33     7     8    1
    34     7     9    1
    35     8    13    1
    36     9    10    1
    37     9    12    1
    38    10    11    1
    39    10     5    1
    40    12    14    1
    41     5     4    1
    42     4     1    1
    43     1     2    2
    44     1     3    1
    45     1    24    1
    46    24    25    1
    47    25    26    2
    48    25    27    1
@<TRIPOS>MOLECULE
UD1
 46 48 0 0 0
SMALL
GASTEIGER

@<TRIPOS>ATOM
      1 P          16.8601   69.7718   -2.6344 P.3     1  UNL1        0.2189
      2 O          17.0444   71.1357   -2.0918 O.2     1  UNL1       -0.5170
      3 O          16.0145   69.8481   -4.0025 O.3     1  UNL1       -0.4371
      4 O          16.0643   68.8714   -1.5624 O.3     1  UNL1       -0.3112
      5 C          15.2149   69.7552   -0.8290 C.3     1  UNL1        0.1811
      6 C          12.7039   67.9688    1.0232 C.3     1  UNL1        0.2383
      7 C          12.3853   69.4632    1.2791 C.3     1  UNL1        0.1895
      8 O          10.9849   69.6607    1.4768 O.3     1  UNL1       -0.3779
      9 C          12.8570   70.1273   -0.0406 C.3     1  UNL1        0.1713
     10 C          13.8425   69.1066   -0.6419 C.3     1  UNL1        0.1764
     11 O          13.9419   68.0096    0.2821 O.3     1  UNL1       -0.3308
     12 O          11.7488   70.3392   -0.9180 O.3     1  UNL1       -0.3794
     13 H          10.8544   70.6066    1.6307 H       1  UNL1        0.2106
     14 H          11.1418   70.9371   -0.4617 H       1  UNL1        0.2105
     15 N          12.8820   67.2520    2.2865 N.ar    1  UNL1       -0.2551
     16 C          12.6578   65.9275    2.3384 C.ar    1  UNL1        0.3323
     17 N          12.8175   65.2418    3.4858 N.ar    1  UNL1       -0.2743
     18 C          13.1987   65.8795    4.6110 C.ar    1  UNL1        0.2626
     19 C          13.4323   67.2748    4.5719 C.ar    1  UNL1        0.0795
     20 C          13.2698   67.9370    3.4064 C.ar    1  UNL1        0.0869
     21 O          12.3135   65.3382    1.3320 O.2     1  UNL1       -0.2464
     22 O          13.3387   65.2614    5.6501 O.2     1  UNL1       -0.2670
     23 H          12.6560   64.2859    3.5039 H       1  UNL1        0.1734
     24 O          18.2979   69.1117   -2.9272 O.3     1  UNL1       -0.2703
     25 P          19.0639   70.0975   -3.9425 P.3     1  UNL1        0.2208
     26 O          20.3298   69.4687   -4.3796 O.2     1  UNL1       -0.5170
     27 O          19.3853   71.4895   -3.2001 O.3     1  UNL1       -0.4371
     28 O          18.1330   70.3776   -5.2253 O.3     1  UNL1       -0.2865
     29 C          18.6055   71.5855   -5.8245 C.3     1  UNL1        0.2611
     30 C          17.4535   72.5876   -5.9169 C.3     1  UNL1        0.1582
     31 C          16.3227   71.9758   -6.7516 C.3     1  UNL1        0.1625
     32 C          16.8983   71.5182   -8.0960 C.3     1  UNL1        0.1686
     33 C          18.0905   70.5941   -7.8391 C.3     1  UNL1        0.1760
     34 O          15.3057   72.9551   -6.9709 O.3     1  UNL1       -0.3801
     35 O          15.8953   70.8137   -8.8304 O.3     1  UNL1       -0.3794
     36 O          19.1058   71.3029   -7.1296 O.3     1  UNL1       -0.3263
     37 H          14.6162   72.5285   -7.4981 H       1  UNL1        0.2105
     38 H          16.2993   70.5436   -9.6672 H       1  UNL1        0.2105
     39 C          17.0112   74.1555   -4.1058 C.2     1  UNL1        0.2231
     40 C          16.5042   74.4693   -2.7213 C.3     1  UNL1        0.0946
     41 N          16.9607   72.8930   -4.5722 N.am    1  UNL1       -0.2994
     42 O          17.4653   75.0399   -4.8000 O.2     1  UNL1       -0.2751
     43 H          16.5975   72.1850   -4.0168 H       1  UNL1        0.1496
     44 C          18.6527   70.1054   -9.1756 C.3     1  UNL1        0.1693
     45 O          18.4901   71.1256  -10.1629 O.3     1  UNL1       -0.3794
     46 H          18.8559   70.7779  -10.9874 H       1  UNL1        0.2105
@<TRIPOS>BOND
     1    29    30    1
     2    29    28    1
     3    29    36    1
     4    30    31    1
     5    30    41    1
     6    31    32    1
     7    31    34    1
     8    32    33    1
     9    32    35    1
    10    33    44    1
    11    33    36    1
    12    44    45    1
    13    39    40    1
    14    39    41   am
    15    39    42    2
    16    41    43    1
    17    28    25    1
    18    34    37    1
    19    35    38    1
    20    45    46    1
    21    15    16   ar
    22    15    20   ar
    23    15     6    1
    24    16    17   ar
    25    16    21    2
    26    17    18   ar
    27    17    23    1
    28    18    19   ar
    29    18    22    2
    30    19    20   ar
    31     6     7    1
    32     6    11    1
    33     7     8    1
    34     7     9    1
    35     8    13    1
    36     9    10    1
    37     9    12    1
    38    10    11    1
    39    10     5    1
    40    12    14    1
    41     5     4    1
    42     4     1    1
    43     1     2    2
    44     1     3    1
    45     1    24    1
    46    24    25    1
    47    25    26    2
    48    25    27    1
@<TRIPOS>MOLECULE
UD1
 46 48 0 0 0
SMALL
GASTEIGER

@<TRIPOS>ATOM
      1 P          23.2906   71.9631   -2.9320 P.3     1  UNL1        0.2189
      2 O          24.2633   70.8686   -3.1431 O.2     1  UNL1       -0.5170
      3 O          23.7032   73.2297   -3.8365 O.3     1  UNL1       -0.4371
      4 O          23.2927   72.3902   -1.3795 O.3     1  UNL1       -0.3112
      5 C          24.0557   71.4056   -0.6804 C.3     1  UNL1        0.1811
      6 C          22.8527   71.7829    2.6868 C.3     1  UNL1        0.2383
      7 C          21.7116   72.3439    1.8017 C.3     1  UNL1        0.1895
      8 O          20.4396   72.1409    2.4184 O.3     1  UNL1       -0.3779
      9 C          21.8460   71.4877    0.5157 C.3     1  UNL1        0.1713
     10 C          23.2924   70.9589    0.5674 C.3     1  UNL1        0.1764
     11 O          23.9101   71.5115    1.7423 O.3     1  UNL1       -0.3308
     12 O          20.9105   70.4072    0.5338 O.3     1  UNL1       -0.3794
     13 H          19.7760   72.5110    1.8200 H       1  UNL1        0.2106
     14 H          20.0287   70.8018    0.5611 H       1  UNL1        0.2105
     15 N          23.2826   72.7763    3.6715 N.ar    1  UNL1       -0.2551
     16 C          24.2282   73.6738    3.3433 C.ar    1  UNL1        0.3323
     17 N          24.6401   74.6015    4.2276 N.ar    1  UNL1       -0.2743
     18 C          24.1131   74.6389    5.4681 C.ar    1  UNL1        0.2626
     19 C          23.1212   73.6962    5.8288 C.ar    1  UNL1        0.0795
     20 C          22.7226   72.7799    4.9205 C.ar    1  UNL1        0.0869
     21 O          24.7129   73.6529    2.2283 O.2     1  UNL1       -0.2464
     22 O          24.4882   75.4742    6.2701 O.2     1  UNL1       -0.2670
     23 H          25.3197   75.2442    3.9723 H       1  UNL1        0.1734
     24 O          21.8196   71.4615   -3.3484 O.3     1  UNL1       -0.2703
     25 P          21.4779   72.1472   -4.7635 P.3     1  UNL1        0.2208
     26 O          22.6277   71.9854   -5.6803 O.2     1  UNL1       -0.5170
     27 O          21.1839   73.7149   -4.5441 O.3     1  UNL1       -0.4371
     28 O          20.1790   71.4435   -5.4025 O.3     1  UNL1       -0.2865
     29 C          19.4818   72.4504   -6.1381 C.3     1  UNL1        0.2611
     30 C          18.0779   72.6207   -5.5551 C.3     1  UNL1        0.1582
     31 C          17.3363   71.2816   -5.6343 C.3     1  UNL1        0.1625
     32 C          17.3849   70.7793   -7.0812 C.3     1  UNL1        0.1686
     33 C          18.8416   70.7450   -7.5482 C.3     1  UNL1        0.1760
     34 O          15.9773   71.4622   -5.2321 O.3     1  UNL1       -0.3801
     35 O          16.8284   69.4650   -7.1498 O.3     1  UNL1       -0.3794
     36 O          19.3923   72.0609   -7.5069 O.3     1  UNL1       -0.3263
     37 H          15.5494   70.5973   -5.2967 H       1  UNL1        0.2105
     38 H          16.8795   69.1876   -8.0756 H       1  UNL1        0.2105
     39 C          17.3525   73.9991   -3.6820 C.2     1  UNL1        0.2231
     40 C          17.4544   74.4359   -2.2429 C.3     1  UNL1        0.0946
     41 N          18.1762   73.0451   -4.1570 N.am    1  UNL1       -0.2994
     42 O          16.5291   74.5071   -4.4129 O.2     1  UNL1       -0.2751
     43 H          18.8353   72.6385   -3.5723 H       1  UNL1        0.1496
     44 C          18.9040   70.2137   -8.9817 C.3     1  UNL1        0.1693
     45 O          18.5188   71.2472   -9.8903 O.3     1  UNL1       -0.3794
     46 H          18.5714   70.8718  -10.7797 H       1  UNL1        0.2105
@<TRIPOS>BOND
     1    29    30    1
     2    29    28    1
     3    29    36    1
     4    30    31    1
     5    30    41    1
     6    31    32    1
     7    31    34    1
     8    32    33    1
     9    32    35    1
    10    33    44    1
    11    33    36    1
    12    44    45    1
    13    39    40    1
    14    39    41   am
    15    39    42    2
    16    41    43    1
    17    28    25    1
    18    34    37    1
    19    35    38    1
    20    45    46    1
    21    15    16   ar
    22    15    20   ar
    23    15     6    1
    24    16    17   ar
    25    16    21    2
    26    17    18   ar
    27    17    23    1
    28    18    19   ar
    29    18    22    2
    30    19    20   ar
    31     6     7    1
    32     6    11    1
    33     7     8    1
    34     7     9    1
    35     8    13    1
    36     9    10    1
    37     9    12    1
    38    10    11    1
    39    10     5    1
    40    12    14    1
    41     5     4    1
    42     4     1    1
    43     1     2    2
    44     1     3    1
    45     1    24    1
    46    24    25    1
    47    25    26    2
    48    25    27    1
@<TRIPOS>MOLECULE
UD1
 46 48 0 0 0
SMALL
GASTEIGER

@<TRIPOS>ATOM
      1 P          16.5974   69.6851   -2.9309 P.3     1  UNL1        0.2189
      2 O          16.3252   69.1137   -4.2681 O.2     1  UNL1       -0.5170
      3 O          16.6750   68.4981   -1.8457 O.3     1  UNL1       -0.4371
      4 O          15.4134   70.7003   -2.5306 O.3     1  UNL1       -0.3112
      5 C          14.9835   70.3377   -1.2175 C.3     1  UNL1        0.1811
      6 C          11.4448   69.8553   -0.8028 C.3     1  UNL1        0.2383
      7 C          12.0053   69.8783    0.6413 C.3     1  UNL1        0.1895
      8 O          11.0429   70.4062    1.5548 O.3     1  UNL1       -0.3779
      9 C          13.2197   70.8330    0.5040 C.3     1  UNL1        0.1713
     10 C          13.5451   70.8107   -1.0020 C.3     1  UNL1        0.1764
     11 O          12.6301   69.8936   -1.6257 O.3     1  UNL1       -0.3308
     12 O          12.8694   72.1524    0.9273 O.3     1  UNL1       -0.3794
     13 H          11.4517   70.3929    2.4312 H       1  UNL1        0.2106
     14 H          12.6193   72.0897    1.8588 H       1  UNL1        0.2105
     15 N          10.6869   68.6274   -1.0463 N.ar    1  UNL1       -0.2551
     16 C           9.5664   68.6719   -1.7878 C.ar    1  UNL1        0.3323
     17 N           8.8515   67.5575   -2.0313 N.ar    1  UNL1       -0.2743
     18 C           9.2465   66.3725   -1.5236 C.ar    1  UNL1        0.2626
     19 C          10.4209   66.3123   -0.7362 C.ar    1  UNL1        0.0795
     20 C          11.1219   67.4445   -0.5121 C.ar    1  UNL1        0.0869
     21 O           9.1974   69.7332   -2.2527 O.2     1  UNL1       -0.2464
     22 O           8.5983   65.3651   -1.7391 O.2     1  UNL1       -0.2670
     23 H           8.0484   67.6072   -2.5722 H       1  UNL1        0.1734
     24 O          17.9969   70.4783   -2.9610 O.3     1  UNL1       -0.2703
     25 P          17.7645   71.7976   -3.8525 P.3     1  UNL1        0.2208
     26 O          17.3282   72.9109   -2.9813 O.2     1  UNL1       -0.5170
     27 O          16.6308   71.5062   -4.9579 O.3     1  UNL1       -0.4371
     28 O          19.1387   72.1987   -4.5881 O.3     1  UNL1       -0.2865
     29 C          19.9581   71.0284   -4.6023 C.3     1  UNL1        0.2611
     30 C          21.4287   71.4425   -4.6805 C.3     1  UNL1        0.1582
     31 C          21.6488   72.2726   -5.9502 C.3     1  UNL1        0.1625
     32 C          21.1309   71.4761   -7.1524 C.3     1  UNL1        0.1686
     33 C          19.6816   71.0621   -6.8890 C.3     1  UNL1        0.1760
     34 O          23.0432   72.5387   -6.1126 O.3     1  UNL1       -0.3801
     35 O          21.1914   72.2889   -8.3261 O.3     1  UNL1       -0.3794
     36 O          19.6211   70.2275   -5.7330 O.3     1  UNL1       -0.3263
     37 H          23.1355   73.0618   -6.9207 H       1  UNL1        0.2105
     38 H          20.8563   71.7503   -9.0569 H       1  UNL1        0.2105
     39 C          22.9981   72.1339   -2.9505 C.2     1  UNL1        0.2231
     40 C          23.3543   72.9581   -1.7396 C.3     1  UNL1        0.0946
     41 N          21.7753   72.2433   -3.5046 N.am    1  UNL1       -0.2994
     42 O          23.8123   71.3714   -3.4257 O.2     1  UNL1       -0.2751
     43 H          21.1235   72.8533   -3.1243 H       1  UNL1        0.1496
     44 C          19.1442   70.2936   -8.0980 C.3     1  UNL1        0.1693
     45 O          20.1800   69.4710   -8.6389 O.3     1  UNL1       -0.3794
     46 H          19.8008   69.0057   -9.3967 H       1  UNL1        0.2105
@<TRIPOS>BOND
     1    29    30    1
     2    29    28    1
     3    29    36    1
     4    30    31    1
     5    30    41    1
     6    31    32    1
     7    31    34    1
     8    32    33    1
     9    32    35    1
    10    33    44    1
    11    33    36    1
    12    44    45    1
    13    39    40    1
    14    39    41   am
    15    39    42    2
    16    41    43    1
    17    28    25    1
    18    34    37    1
    19    35    38    1
    20    45    46    1
    21    15    16   ar
    22    15    20   ar
    23    15     6    1
    24    16    17   ar
    25    16    21    2
    26    17    18   ar
    27    17    23    1
    28    18    19   ar
    29    18    22    2
    30    19    20   ar
    31     6     7    1
    32     6    11    1
    33     7     8    1
    34     7     9    1
    35     8    13    1
    36     9    10    1
    37     9    12    1
    38    10    11    1
    39    10     5    1
    40    12    14    1
    41     5     4    1
    42     4     1    1
    43     1     2    2
    44     1     3    1
    45     1    24    1
    46    24    25    1
    47    25    26    2
    48    25    27    1
@<TRIPOS>MOLECULE
UD1
 46 48 0 0 0
SMALL
GASTEIGER

@<TRIPOS>ATOM
      1 P          15.1849   70.7783   -1.8272 P.3     1  UNL1        0.2189
      2 O          16.3196   71.5644   -1.2952 O.2     1  UNL1       -0.5170
      3 O          13.8008   71.5055   -1.4424 O.3     1  UNL1       -0.4371
      4 O          15.2096   69.3008   -1.1874 O.3     1  UNL1       -0.3112
      5 C          14.4394   69.3572    0.0142 C.3     1  UNL1        0.1811
      6 C          13.2002   66.7885    2.2036 C.3     1  UNL1        0.2383
      7 C          11.9302   67.5333    1.7212 C.3     1  UNL1        0.1895
      8 O          10.8105   66.6491    1.6622 O.3     1  UNL1       -0.3779
      9 C          12.3446   67.9970    0.3005 C.3     1  UNL1        0.1713
     10 C          13.8849   67.9675    0.3315 C.3     1  UNL1        0.1764
     11 O          14.2805   67.5741    1.6566 O.3     1  UNL1       -0.3308
     12 O          11.8403   67.0954   -0.6871 O.3     1  UNL1       -0.3794
     13 H          10.0563   67.1721    1.3570 H       1  UNL1        0.2106
     14 H          10.8766   67.1141   -0.6162 H       1  UNL1        0.2105
     15 N          13.2661   66.7672    3.6653 N.ar    1  UNL1       -0.2551
     16 C          12.8720   65.6696    4.3341 C.ar    1  UNL1        0.3323
     17 N          12.9254   65.6205    5.6784 N.ar    1  UNL1       -0.2743
     18 C          13.3696   66.6828    6.3800 C.ar    1  UNL1        0.2626
     19 C          13.7819   67.8469    5.6888 C.ar    1  UNL1        0.0795
     20 C          13.7229   67.8672    4.3399 C.ar    1  UNL1        0.0869
     21 O          12.4691   64.7034    3.7154 O.2     1  UNL1       -0.2464
     22 O          13.4138   66.6413    7.5956 O.2     1  UNL1       -0.2670
     23 H          12.6416   64.8189    6.1442 H       1  UNL1        0.1734
     24 O          15.3093   70.6718   -3.4279 O.3     1  UNL1       -0.2703
     25 P          16.7974   70.1479   -3.7446 P.3     1  UNL1        0.2208
     26 O          16.9388   68.7516   -3.2765 O.2     1  UNL1       -0.5170
     27 O          17.8682   71.0791   -2.9841 O.3     1  UNL1       -0.4371
     28 O          17.0639   70.2116   -5.3306 O.3     1  UNL1       -0.2865
     29 C          17.5206   71.5337   -5.6215 C.3     1  UNL1        0.2611
     30 C          16.5011   72.2336   -6.5219 C.3     1  UNL1        0.1582
     31 C          16.3323   71.4234   -7.8121 C.3     1  UNL1        0.1625
     32 C          17.7138   71.2053   -8.4381 C.3     1  UNL1        0.1686
     33 C          18.6411   70.5801   -7.3939 C.3     1  UNL1        0.1760
     34 O          15.4982   72.1417   -8.7229 O.3     1  UNL1       -0.3801
     35 O          17.5968   70.3295   -9.5610 O.3     1  UNL1       -0.3794
     36 O          18.7820   71.4646   -6.2829 O.3     1  UNL1       -0.3263
     37 H          15.4189   71.5970   -9.5181 H       1  UNL1        0.2105
     38 H          18.4873   70.2190   -9.9236 H       1  UNL1        0.2105
     39 C          14.6951   73.5292   -5.5248 C.2     1  UNL1        0.2231
     40 C          13.3713   73.6217   -4.8097 C.3     1  UNL1        0.0946
     41 N          15.2150   72.3241   -5.8276 N.am    1  UNL1       -0.2994
     42 O          15.2928   74.5399   -5.8272 O.2     1  UNL1       -0.2751
     43 H          14.7369   71.5151   -5.5855 H       1  UNL1        0.1496
     44 C          20.0148   70.3281   -8.0190 C.3     1  UNL1        0.1693
     45 O          19.9571   69.1617   -8.8426 O.3     1  UNL1       -0.3794
     46 H          20.8403   69.0388   -9.2159 H       1  UNL1        0.2105
@<TRIPOS>BOND
     1    29    30    1
     2    29    28    1
     3    29    36    1
     4    30    31    1
     5    30    41    1
     6    31    32    1
     7    31    34    1
     8    32    33    1
     9    32    35    1
    10    33    44    1
    11    33    36    1
    12    44    45    1
    13    39    40    1
    14    39    41   am
    15    39    42    2
    16    41    43    1
    17    28    25    1
    18    34    37    1
    19    35    38    1
    20    45    46    1
    21    15    16   ar
    22    15    20   ar
    23    15     6    1
    24    16    17   ar
    25    16    21    2
    26    17    18   ar
    27    17    23    1
    28    18    19   ar
    29    18    22    2
    30    19    20   ar
    31     6     7    1
    32     6    11    1
    33     7     8    1
    34     7     9    1
    35     8    13    1
    36     9    10    1
    37     9    12    1
    38    10    11    1
    39    10     5    1
    40    12    14    1
    41     5     4    1
    42     4     1    1
    43     1     2    2
    44     1     3    1
    45     1    24    1
    46    24    25    1
    47    25    26    2
    48    25    27    1
@<TRIPOS>MOLECULE
UD1
 46 48 0 0 0
SMALL
GASTEIGER

@<TRIPOS>ATOM
      1 P          22.2538   71.2271    0.6162 P.3     1  UNL1        0.2189
      2 O          23.2596   70.2278    1.0388 O.2     1  UNL1       -0.5170
      3 O          20.8971   70.4743    0.1859 O.3     1  UNL1       -0.4371
      4 O          22.8228   72.0635   -0.6366 O.3     1  UNL1       -0.3112
      5 C          21.7693   72.1362   -1.5984 C.3     1  UNL1        0.1811
      6 C          21.3690   71.1403   -5.0299 C.3     1  UNL1        0.2383
      7 C          22.0361   72.5365   -5.1063 C.3     1  UNL1        0.1895
      8 O          22.8667   72.6435   -6.2629 O.3     1  UNL1       -0.3779
      9 C          22.8867   72.5622   -3.8098 C.3     1  UNL1        0.1713
     10 C          22.2298   71.4978   -2.9098 C.3     1  UNL1        0.1764
     11 O          21.0967   70.9727   -3.6223 O.3     1  UNL1       -0.3308
     12 O          24.2440   72.2170   -4.0949 O.3     1  UNL1       -0.3794
     13 H          23.2498   73.5315   -6.2515 H       1  UNL1        0.2106
     14 H          24.5794   72.8853   -4.7073 H       1  UNL1        0.2105
     15 N          20.1264   71.1154   -5.8025 N.ar    1  UNL1       -0.2551
     16 C          20.1249   70.6038   -7.0457 C.ar    1  UNL1        0.3323
     17 N          18.9958   70.5645   -7.7777 N.ar    1  UNL1       -0.2743
     18 C          17.8427   71.0496   -7.2748 C.ar    1  UNL1        0.2626
     19 C          17.8314   71.5965   -5.9696 C.ar    1  UNL1        0.0795
     20 C          18.9770   71.6186   -5.2552 C.ar    1  UNL1        0.0869
     21 O          21.1570   70.1624   -7.5132 O.2     1  UNL1       -0.2464
     22 O          16.8223   71.0189   -7.9376 O.2     1  UNL1       -0.2670
     23 H          19.0120   70.1876   -8.6710 H       1  UNL1        0.1734
     24 O          21.9483   72.2302    1.8366 O.3     1  UNL1       -0.2703
     25 P          23.3358   72.4408    2.6239 P.3     1  UNL1        0.2208
     26 O          24.3951   72.8201    1.6633 O.2     1  UNL1       -0.5170
     27 O          23.7478   71.0708    3.3626 O.3     1  UNL1       -0.4371
     28 O          23.1614   73.6076    3.7187 O.3     1  UNL1       -0.2865
     29 C          21.9981   73.2874    4.4839 C.3     1  UNL1        0.2611
     30 C          20.9834   74.4254    4.3603 C.3     1  UNL1        0.1582
     31 C          21.6226   75.7240    4.8650 C.3     1  UNL1        0.1625
     32 C          22.1663   75.4858    6.2777 C.3     1  UNL1        0.1686
     33 C          23.0944   74.2695    6.2560 C.3     1  UNL1        0.1760
     34 O          20.6402   76.7611    4.8950 O.3     1  UNL1       -0.3801
     35 O          22.8946   76.6367    6.7098 O.3     1  UNL1       -0.3794
     36 O          22.3636   73.1125    5.8511 O.3     1  UNL1       -0.3263
     37 H          21.0845   77.5574    5.2172 H       1  UNL1        0.2105
     38 H          23.2191   76.4441    7.6009 H       1  UNL1        0.2105
     39 C          19.2939   74.5198    2.6079 C.2     1  UNL1        0.2231
     40 C          18.8926   74.6822    1.1640 C.3     1  UNL1        0.0946
     41 N          20.5930   74.5835    2.9578 N.am    1  UNL1       -0.2994
     42 O          18.4471   74.3311    3.4550 O.2     1  UNL1       -0.2751
     43 H          21.2709   74.7343    2.2801 H       1  UNL1        0.1496
     44 C          23.6686   74.0425    7.6560 C.3     1  UNL1        0.1693
     45 O          22.6349   74.2109    8.6282 O.3     1  UNL1       -0.3794
     46 H          23.0378   74.0600    9.4940 H       1  UNL1        0.2105
@<TRIPOS>BOND
     1    29    30    1
     2    29    28    1
     3    29    36    1
     4    30    31    1
     5    30    41    1
     6    31    32    1
     7    31    34    1
     8    32    33    1
     9    32    35    1
    10    33    44    1
    11    33    36    1
    12    44    45    1
    13    39    40    1
    14    39    41   am
    15    39    42    2
    16    41    43    1
    17    28    25    1
    18    34    37    1
    19    35    38    1
    20    45    46    1
    21    15    16   ar
    22    15    20   ar
    23    15     6    1
    24    16    17   ar
    25    16    21    2
    26    17    18   ar
    27    17    23    1
    28    18    19   ar
    29    18    22    2
    30    19    20   ar
    31     6     7    1
    32     6    11    1
    33     7     8    1
    34     7     9    1
    35     8    13    1
    36     9    10    1
    37     9    12    1
    38    10    11    1
    39    10     5    1
    40    12    14    1
    41     5     4    1
    42     4     1    1
    43     1     2    2
    44     1     3    1
    45     1    24    1
    46    24    25    1
    47    25    26    2
    48    25    27    1
@<TRIPOS>MOLECULE
UD1
 46 48 0 0 0
SMALL
GASTEIGER

@<TRIPOS>ATOM
      1 P          21.6361   72.6588   -6.4886 P.3     1  UNL1        0.2189
      2 O          20.5981   73.6102   -6.9428 O.2     1  UNL1       -0.5170
      3 O          23.0943   73.2854   -6.7604 O.3     1  UNL1       -0.4371
      4 O          21.4877   71.2759   -7.2999 O.3     1  UNL1       -0.3112
      5 C          20.5894   71.5252   -8.3821 C.3     1  UNL1        0.1811
      6 C          17.5975   70.0882   -6.9998 C.3     1  UNL1        0.2383
      7 C          17.0895   71.0975   -8.0597 C.3     1  UNL1        0.1895
      8 O          15.8554   70.6614   -8.6306 O.3     1  UNL1       -0.3779
      9 C          18.2281   71.0653   -9.1121 C.3     1  UNL1        0.1713
     10 C          19.4405   70.5167   -8.3353 C.3     1  UNL1        0.1764
     11 O          19.0229   70.3141   -6.9744 O.3     1  UNL1       -0.3308
     12 O          17.8847   70.1972  -10.1944 O.3     1  UNL1       -0.3794
     13 H          15.5946   71.3304   -9.2787 H       1  UNL1        0.2106
     14 H          17.0870   70.5606  -10.6015 H       1  UNL1        0.2105
     15 N          17.0071   70.3686   -5.6905 N.ar    1  UNL1       -0.2551
     16 C          16.5024   69.3609   -4.9576 C.ar    1  UNL1        0.3323
     17 N          15.9569   69.5890   -3.7482 N.ar    1  UNL1       -0.2743
     18 C          15.8996   70.8422   -3.2540 C.ar    1  UNL1        0.2626
     19 C          16.4218   71.9131   -4.0177 C.ar    1  UNL1        0.0795
     20 C          16.9682   71.6554   -5.2253 C.ar    1  UNL1        0.0869
     21 O          16.5467   68.2251   -5.3896 O.2     1  UNL1       -0.2464
     22 O          15.4023   71.0502   -2.1628 O.2     1  UNL1       -0.2670
     23 H          15.6019   68.8496   -3.2310 H       1  UNL1        0.1734
     24 O          21.4561   72.3792   -4.9144 O.3     1  UNL1       -0.2703
     25 P          22.6016   73.2198   -4.1589 P.3     1  UNL1        0.2208
     26 O          22.4322   74.6596   -4.4537 O.2     1  UNL1       -0.5170
     27 O          24.0493   72.7348   -4.6700 O.3     1  UNL1       -0.4371
     28 O          22.4864   72.9799   -2.5716 O.3     1  UNL1       -0.2865
     29 C          21.3109   73.6634   -2.1333 C.3     1  UNL1        0.2611
     30 C          21.4887   74.0899   -0.6751 C.3     1  UNL1        0.1582
     31 C          21.7431   72.8458    0.1835 C.3     1  UNL1        0.1625
     32 C          20.6167   71.8378   -0.0683 C.3     1  UNL1        0.1686
     33 C          20.5067   71.5789   -1.5724 C.3     1  UNL1        0.1760
     34 O          21.7620   73.2126    1.5643 O.3     1  UNL1       -0.3801
     35 O          20.9103   70.6141    0.6085 O.3     1  UNL1       -0.3794
     36 O          20.1865   72.7940   -2.2486 O.3     1  UNL1       -0.3263
     37 H          21.9247   72.4023    2.0665 H       1  UNL1        0.2105
     38 H          20.1781   70.0092    0.4230 H       1  UNL1        0.2105
     39 C          23.8410   74.5287   -0.2184 C.2     1  UNL1        0.2231
     40 C          25.0145   75.4682   -0.1068 C.3     1  UNL1        0.0946
     41 N          22.6291   75.0021   -0.5670 N.am    1  UNL1       -0.2994
     42 O          23.9875   73.3462    0.0063 O.2     1  UNL1       -0.2751
     43 H          22.5115   75.9484   -0.7467 H       1  UNL1        0.1496
     44 C          19.4058   70.5485   -1.8320 C.3     1  UNL1        0.1693
     45 O          19.5552   70.0127   -3.1484 O.3     1  UNL1       -0.3794
     46 H          18.8438   69.3697   -3.2712 H       1  UNL1        0.2105
@<TRIPOS>BOND
     1    29    30    1
     2    29    28    1
     3    29    36    1
     4    30    31    1
     5    30    41    1
     6    31    32    1
     7    31    34    1
     8    32    33    1
     9    32    35    1
    10    33    44    1
    11    33    36    1
    12    44    45    1
    13    39    40    1
    14    39    41   am
    15    39    42    2
    16    41    43    1
    17    28    25    1
    18    34    37    1
    19    35    38    1
    20    45    46    1
    21    15    16   ar
    22    15    20   ar
    23    15     6    1
    24    16    17   ar
    25    16    21    2
    26    17    18   ar
    27    17    23    1
    28    18    19   ar
    29    18    22    2
    30    19    20   ar
    31     6     7    1
    32     6    11    1
    33     7     8    1
    34     7     9    1
    35     8    13    1
    36     9    10    1
    37     9    12    1
    38    10    11    1
    39    10     5    1
    40    12    14    1
    41     5     4    1
    42     4     1    1
    43     1     2    2
    44     1     3    1
    45     1    24    1
    46    24    25    1
    47    25    26    2
    48    25    27    1
