@<TRIPOS>MOLECULE
*****
 43 45 0 0 0
SMALL
GASTEIGER

@<TRIPOS>ATOM
      1 P          22.8284   71.8771   -2.4066 P.3     1  UNL1        0.2189
      2 O          23.2493   73.3068   -1.7773 O.co2   1  UNL1       -0.4371
      3 O          23.4893   71.5394   -3.7107 O.2     1  UNL1       -0.5170
      4 O          21.2112   71.9239   -2.4299 O.3     1  UNL1       -0.3112
      5 C          20.5367   71.4244   -3.5716 C.3     1  UNL1        0.1811
      6 O          18.5987   72.2211   -4.7476 O.3     1  UNL1       -0.3308
      7 O          16.9868   71.0285   -2.5182 O.3     1  UNL1       -0.3794
      8 O          16.7451   69.1615   -4.4911 O.3     1  UNL1       -0.3779
      9 C          18.1908   70.5512   -3.1164 C.3     1  UNL1        0.1713
     10 C          17.9035   69.9706   -4.4853 C.3     1  UNL1        0.1895
     11 C          19.0556   71.7582   -3.4579 C.3     1  UNL1        0.1764
     12 C          17.7466   71.2223   -5.3318 C.3     1  UNL1        0.2383
     13 H          16.4182   70.2755   -2.2909 H       1  UNL1        0.2105
     14 H          16.8948   68.3783   -3.9388 H       1  UNL1        0.2106
     15 O          16.0090   70.3441   -7.3781 O.2     1  UNL1       -0.2464
     16 O          19.3692   70.4547  -10.5306 O.2     1  UNL1       -0.2670
     17 N          18.1407   71.0135   -6.6965 N.ar    1  UNL1       -0.2551
     18 N          17.6835   70.4001   -8.9462 N.ar    1  UNL1       -0.2743
     19 C          17.1908   70.5701   -7.6460 C.ar    1  UNL1        0.3323
     20 C          19.4562   71.2483   -7.0816 C.ar    1  UNL1        0.0869
     21 C          19.9104   71.0801   -8.3253 C.ar    1  UNL1        0.0795
     22 C          18.9821   70.6189   -9.3778 C.ar    1  UNL1        0.2626
     23 H          17.0398   70.0914   -9.6245 H       1  UNL1        0.1734
     24 O          23.1447   70.8435   -1.2047 O.3     1  UNL1       -0.2703
     25 P          22.3873   70.5848    0.1997 P.3     1  UNL1        0.2208
     26 O          23.4323   69.6617    1.0203 O.co2   1  UNL1       -0.4371
     27 O          21.0153   69.9917    0.0588 O.2     1  UNL1       -0.5170
     28 O          22.4250   72.0116    0.9531 O.3     1  UNL1       -0.2858
     29 O          21.5313   72.6017    3.0673 O.3     1  UNL1       -0.3258
     30 O          20.9145   76.1642    1.0726 O.3     1  UNL1       -0.3794
     31 O          22.9697   75.9958    3.0715 O.3     1  UNL1       -0.3794
     32 O          20.5284   73.6500   -0.3092 O.3     1  UNL1       -0.3775
     33 C          21.6091   74.9578    1.4005 C.3     1  UNL1        0.1715
     34 C          21.9675   74.9998    2.8873 C.3     1  UNL1        0.1694
     35 C          20.7055   73.7638    1.0987 C.3     1  UNL1        0.1967
     36 C          22.4744   73.6354    3.3736 C.3     1  UNL1        0.1761
     37 C          21.2779   72.4643    1.6677 C.3     1  UNL1        0.2704
     38 H          21.4829   76.9263    1.2614 H       1  UNL1        0.2105
     39 H          22.6371   76.8523    2.7600 H       1  UNL1        0.2105
     40 H          20.1653   74.4788   -0.6573 H       1  UNL1        0.2106
     41 O          22.0184   72.4813    5.4155 O.3     1  UNL1       -0.3794
     42 C          22.6881   73.6104    4.8855 C.3     1  UNL1        0.1693
     43 H          22.1460   72.4523    6.3770 H       1  UNL1        0.2105
@<TRIPOS>UNITY_ATOM_ATTR
2 1
charge -1
26 1
charge -1
@<TRIPOS>BOND
     1    25    28    1
     2    25    24    1
     3    25    26    1
     4    25    27    2
     5     1     4    1
     6     1    24    1
     7     1     2    1
     8     1     3    2
     9     6    11    1
    10     6    12    1
    11    29    36    1
    12    29    37    1
    13     7     9    1
    14     7    13    1
    15     8    10    1
    16     8    14    1
    17    28    37    1
    18     4     5    1
    19    30    33    1
    20    30    38    1
    21    31    34    1
    22    31    39    1
    23    32    35    1
    24    32    40    1
    25    41    42    1
    26    41    43    1
    27    15    19    2
    28    16    22    2
    29    17    12    1
    30    17    19   ar
    31    17    20   ar
    32    18    19   ar
    33    18    22   ar
    34    18    23    1
    35     9    10    1
    36     9    11    1
    37    10    12    1
    38    11     5    1
    39    33    34    1
    40    33    35    1
    41    34    36    1
    42    35    37    1
    43    36    42    1
    44    20    21   ar
    45    21    22   ar
@<TRIPOS>MOLECULE
*****
 43 45 0 0 0
SMALL
GASTEIGER

@<TRIPOS>ATOM
      1 P          22.8467   71.8356   -2.4156 P.3     1  UNL1        0.2189
      2 O          23.6286   73.2494   -2.5010 O.co2   1  UNL1       -0.4371
      3 O          23.4158   70.7438   -3.2731 O.2     1  UNL1       -0.5170
      4 O          21.3041   72.2266   -2.7078 O.3     1  UNL1       -0.3112
      5 C          20.5707   71.4410   -3.6313 C.3     1  UNL1        0.1811
      6 O          18.6234   72.2342   -4.7943 O.3     1  UNL1       -0.3308
      7 O          17.0302   71.0629   -2.5404 O.3     1  UNL1       -0.3794
      8 O          16.7641   69.1817   -4.4967 O.3     1  UNL1       -0.3779
      9 C          18.2270   70.5778   -3.1467 C.3     1  UNL1        0.1713
     10 C          17.9248   69.9877   -4.5083 C.3     1  UNL1        0.1895
     11 C          19.0917   71.7797   -3.5057 C.3     1  UNL1        0.1764
     12 C          17.7630   71.2334   -5.3627 C.3     1  UNL1        0.2383
     13 H          16.4618   70.3131   -2.3019 H       1  UNL1        0.2105
     14 H          16.9171   68.4023   -3.9400 H       1  UNL1        0.2106
     15 O          16.0024   70.3477   -7.3860 O.2     1  UNL1       -0.2464
     16 O          19.3326   70.4220  -10.5711 O.2     1  UNL1       -0.2670
     17 N          18.1432   71.0133   -6.7296 N.ar    1  UNL1       -0.2551
     18 N          17.6620   70.3856   -8.9703 N.ar    1  UNL1       -0.2743
     19 C          17.1825   70.5670   -7.6668 C.ar    1  UNL1        0.3323
     20 C          19.4559   71.2399   -7.1288 C.ar    1  UNL1        0.0869
     21 C          19.8974   71.0609   -8.3755 C.ar    1  UNL1        0.0795
     22 C          18.9573   70.5961   -9.4158 C.ar    1  UNL1        0.2626
     23 H          17.0106   70.0747   -9.6402 H       1  UNL1        0.1734
     24 O          22.8464   71.5155   -0.8311 O.3     1  UNL1       -0.2703
     25 P          22.0270   70.4204    0.0305 P.3     1  UNL1        0.2208
     26 O          23.1861   69.4271    0.5665 O.co2   1  UNL1       -0.4371
     27 O          20.9280   69.7363   -0.7297 O.2     1  UNL1       -0.5170
     28 O          21.5350   71.2190    1.3440 O.3     1  UNL1       -0.2858
     29 O          22.1016   73.4819    0.9254 O.3     1  UNL1       -0.3258
     30 O          20.3614   73.9146    4.6450 O.3     1  UNL1       -0.3794
     31 O          18.9689   74.8435    2.3113 O.3     1  UNL1       -0.3794
     32 O          22.0111   71.6034    4.0827 O.3     1  UNL1       -0.3775
     33 C          20.5268   73.3495    3.3416 C.3     1  UNL1        0.1715
     34 C          20.3421   74.4632    2.3091 C.3     1  UNL1        0.1694
     35 C          21.9247   72.7431    3.2342 C.3     1  UNL1        0.1967
     36 C          20.7651   73.9968    0.9095 C.3     1  UNL1        0.1761
     37 C          22.2642   72.3583    1.7931 C.3     1  UNL1        0.2704
     38 H          19.4756   74.3009    4.7200 H       1  UNL1        0.2105
     39 H          18.7144   75.1354    3.2008 H       1  UNL1        0.2105
     40 H          21.7943   71.8602    4.9920 H       1  UNL1        0.2106
     41 O          21.9196   75.0740   -0.8837 O.3     1  UNL1       -0.3794
     42 C          20.7385   75.1373   -0.1057 C.3     1  UNL1        0.1693
     43 H          21.9163   75.7938   -1.5345 H       1  UNL1        0.2105
@<TRIPOS>UNITY_ATOM_ATTR
2 1
charge -1
26 1
charge -1
@<TRIPOS>BOND
     1    25    28    1
     2    25    24    1
     3    25    26    1
     4    25    27    2
     5     1     4    1
     6     1    24    1
     7     1     2    1
     8     1     3    2
     9     6    11    1
    10     6    12    1
    11    29    36    1
    12    29    37    1
    13     7     9    1
    14     7    13    1
    15     8    10    1
    16     8    14    1
    17    28    37    1
    18     4     5    1
    19    30    33    1
    20    30    38    1
    21    31    34    1
    22    31    39    1
    23    32    35    1
    24    32    40    1
    25    41    42    1
    26    41    43    1
    27    15    19    2
    28    16    22    2
    29    17    12    1
    30    17    19   ar
    31    17    20   ar
    32    18    19   ar
    33    18    22   ar
    34    18    23    1
    35     9    10    1
    36     9    11    1
    37    10    12    1
    38    11     5    1
    39    33    34    1
    40    33    35    1
    41    34    36    1
    42    35    37    1
    43    36    42    1
    44    20    21   ar
    45    21    22   ar
@<TRIPOS>MOLECULE
*****
 43 45 0 0 0
SMALL
GASTEIGER

@<TRIPOS>ATOM
      1 P          22.9875   71.8354   -3.3391 P.3     1  UNL1        0.2189
      2 O          23.7422   72.9415   -4.2470 O.co2   1  UNL1       -0.4371
      3 O          23.7187   70.5340   -3.1874 O.2     1  UNL1       -0.5170
      4 O          21.5102   71.7393   -3.9921 O.3     1  UNL1       -0.3112
      5 C          20.6507   70.6951   -3.5694 C.3     1  UNL1        0.1811
      6 O          18.8608   71.8671   -4.6631 O.3     1  UNL1       -0.3308
      7 O          17.0822   70.7802   -2.5076 O.3     1  UNL1       -0.3794
      8 O          16.5528   69.1225   -4.6072 O.3     1  UNL1       -0.3779
      9 C          18.1973   70.1664   -3.1521 C.3     1  UNL1        0.1713
     10 C          17.8233   69.7391   -4.5561 C.3     1  UNL1        0.1895
     11 C          19.2397   71.2460   -3.4153 C.3     1  UNL1        0.1764
     12 C          17.8636   71.0584   -5.3083 C.3     1  UNL1        0.2383
     13 H          16.4032   70.1102   -2.3290 H       1  UNL1        0.2105
     14 H          16.5785   68.2874   -4.1146 H       1  UNL1        0.2106
     15 O          16.0284   70.4576   -7.3697 O.2     1  UNL1       -0.2464
     16 O          19.3469   70.4373  -10.5679 O.2     1  UNL1       -0.2670
     17 N          18.2206   70.8910   -6.6889 N.ar    1  UNL1       -0.2551
     18 N          17.6822   70.4482   -8.9605 N.ar    1  UNL1       -0.2743
     19 C          17.2228   70.5896   -7.6449 C.ar    1  UNL1        0.3323
     20 C          19.5475   71.0260   -7.0828 C.ar    1  UNL1        0.0869
     21 C          19.9694   70.8868   -8.3413 C.ar    1  UNL1        0.0795
     22 C          18.9903   70.5716   -9.4014 C.ar    1  UNL1        0.2626
     23 H          17.0049   70.2378   -9.6437 H       1  UNL1        0.1734
     24 O          22.7215   72.6232   -1.9529 O.3     1  UNL1       -0.2703
     25 P          22.8391   74.1927   -1.5844 P.3     1  UNL1        0.2208
     26 O          21.8529   74.9000   -2.6543 O.co2   1  UNL1       -0.4371
     27 O          24.2436   74.7230   -1.5920 O.2     1  UNL1       -0.5170
     28 O          22.0769   74.3383   -0.1692 O.3     1  UNL1       -0.2858
     29 O          21.3730   72.1241    0.2986 O.3     1  UNL1       -0.3258
     30 O          20.0724   73.9739    3.7537 O.3     1  UNL1       -0.3794
     31 O          22.3554   72.2342    3.8499 O.3     1  UNL1       -0.3794
     32 O          19.8495   75.3413    1.2121 O.3     1  UNL1       -0.3775
     33 C          20.9497   73.7499    2.6468 C.3     1  UNL1        0.1715
     34 C          21.4742   72.3152    2.7331 C.3     1  UNL1        0.1694
     35 C          20.1770   73.9625    1.3464 C.3     1  UNL1        0.1967
     36 C          22.2058   71.9143    1.4450 C.3     1  UNL1        0.1761
     37 C          20.9746   73.4861    0.1310 C.3     1  UNL1        0.2704
     38 H          20.5570   73.8410    4.5826 H       1  UNL1        0.2105
     39 H          21.8813   72.4903    4.6567 H       1  UNL1        0.2105
     40 H          19.3445   75.6306    1.9875 H       1  UNL1        0.2106
     41 O          21.6423   69.7177    0.6926 O.3     1  UNL1       -0.3794
     42 C          22.5994   70.4388    1.4464 C.3     1  UNL1        0.1693
     43 H          21.8801   68.7769    0.6845 H       1  UNL1        0.2105
@<TRIPOS>UNITY_ATOM_ATTR
2 1
charge -1
26 1
charge -1
@<TRIPOS>BOND
     1    25    28    1
     2    25    24    1
     3    25    26    1
     4    25    27    2
     5     1     4    1
     6     1    24    1
     7     1     2    1
     8     1     3    2
     9     6    11    1
    10     6    12    1
    11    29    36    1
    12    29    37    1
    13     7     9    1
    14     7    13    1
    15     8    10    1
    16     8    14    1
    17    28    37    1
    18     4     5    1
    19    30    33    1
    20    30    38    1
    21    31    34    1
    22    31    39    1
    23    32    35    1
    24    32    40    1
    25    41    42    1
    26    41    43    1
    27    15    19    2
    28    16    22    2
    29    17    12    1
    30    17    19   ar
    31    17    20   ar
    32    18    19   ar
    33    18    22   ar
    34    18    23    1
    35     9    10    1
    36     9    11    1
    37    10    12    1
    38    11     5    1
    39    33    34    1
    40    33    35    1
    41    34    36    1
    42    35    37    1
    43    36    42    1
    44    20    21   ar
    45    21    22   ar
@<TRIPOS>MOLECULE
*****
 43 45 0 0 0
SMALL
GASTEIGER

@<TRIPOS>ATOM
      1 P          22.7027   72.2165   -3.1393 P.3     1  UNL1        0.2189
      2 O          23.9011   72.7210   -4.1020 O.co2   1  UNL1       -0.4371
      3 O          23.1371   71.3805   -1.9715 O.2     1  UNL1       -0.5170
      4 O          21.6575   71.5147   -4.1556 O.3     1  UNL1       -0.3112
      5 C          20.8122   70.4926   -3.6569 C.3     1  UNL1        0.1811
      6 O          19.0130   71.7340   -4.6547 O.3     1  UNL1       -0.3308
      7 O          17.2803   70.6081   -2.4819 O.3     1  UNL1       -0.3794
      8 O          16.6544   69.0324   -4.6178 O.3     1  UNL1       -0.3779
      9 C          18.3628   69.9958   -3.1810 C.3     1  UNL1        0.1713
     10 C          17.9376   69.6231   -4.5859 C.3     1  UNL1        0.1895
     11 C          19.4177   71.0641   -3.4407 C.3     1  UNL1        0.1764
     12 C          17.9808   70.9662   -5.2949 C.3     1  UNL1        0.2383
     13 H          16.5940   69.9451   -2.3044 H       1  UNL1        0.2105
     14 H          16.6787   68.1808   -4.1542 H       1  UNL1        0.2106
     15 O          16.0735   70.4574   -7.3152 O.2     1  UNL1       -0.2464
     16 O          19.2897   70.4964  -10.6161 O.2     1  UNL1       -0.2670
     17 N          18.2920   70.8389   -6.6907 N.ar    1  UNL1       -0.2551
     18 N          17.6765   70.4774   -8.9571 N.ar    1  UNL1       -0.2743
     19 C          17.2605   70.5822   -7.6237 C.ar    1  UNL1        0.3323
     20 C          19.6077   70.9688   -7.1220 C.ar    1  UNL1        0.0869
     21 C          19.9880   70.8649   -8.3970 C.ar    1  UNL1        0.0795
     22 C          18.9718   70.5975   -9.4352 C.ar    1  UNL1        0.2626
     23 H          16.9751   70.2984   -9.6248 H       1  UNL1        0.1734
     24 O          21.9535   73.5921   -2.7403 O.3     1  UNL1       -0.2703
     25 P          22.4266   74.8279   -1.8118 P.3     1  UNL1        0.2208
     26 O          21.4255   76.0225   -2.2457 O.co2   1  UNL1       -0.4371
     27 O          23.8841   75.1663   -1.9336 O.2     1  UNL1       -0.5170
     28 O          21.9562   74.4228   -0.3219 O.3     1  UNL1       -0.2858
     29 O          23.4761   74.6733    1.4791 O.3     1  UNL1       -0.3258
     30 O          20.8743   71.9579    3.1843 O.3     1  UNL1       -0.3794
     31 O          20.8666   74.6856    4.0828 O.3     1  UNL1       -0.3794
     32 O          21.5615   71.7349    0.3811 O.3     1  UNL1       -0.3775
     33 C          21.2448   73.0679    2.3621 C.3     1  UNL1        0.1715
     34 C          21.8856   74.1328    3.2544 C.3     1  UNL1        0.1694
     35 C          22.2322   72.5930    1.2977 C.3     1  UNL1        0.1967
     36 C          22.5477   75.2337    2.4149 C.3     1  UNL1        0.1761
     37 C          22.8699   73.7682    0.5544 C.3     1  UNL1        0.2704
     38 H          20.2470   72.2525    3.8619 H       1  UNL1        0.2105
     39 H          20.4563   73.9801    4.6072 H       1  UNL1        0.2105
     40 H          21.1625   70.9949    0.8639 H       1  UNL1        0.2106
     41 O          23.2019   75.8293    4.6344 O.3     1  UNL1       -0.3794
     42 C          23.3276   76.2215    3.2799 C.3     1  UNL1        0.1693
     43 H          23.6936   76.4489    5.1967 H       1  UNL1        0.2105
@<TRIPOS>UNITY_ATOM_ATTR
2 1
charge -1
26 1
charge -1
@<TRIPOS>BOND
     1    25    28    1
     2    25    24    1
     3    25    26    1
     4    25    27    2
     5     1     4    1
     6     1    24    1
     7     1     2    1
     8     1     3    2
     9     6    11    1
    10     6    12    1
    11    29    36    1
    12    29    37    1
    13     7     9    1
    14     7    13    1
    15     8    10    1
    16     8    14    1
    17    28    37    1
    18     4     5    1
    19    30    33    1
    20    30    38    1
    21    31    34    1
    22    31    39    1
    23    32    35    1
    24    32    40    1
    25    41    42    1
    26    41    43    1
    27    15    19    2
    28    16    22    2
    29    17    12    1
    30    17    19   ar
    31    17    20   ar
    32    18    19   ar
    33    18    22   ar
    34    18    23    1
    35     9    10    1
    36     9    11    1
    37    10    12    1
    38    11     5    1
    39    33    34    1
    40    33    35    1
    41    34    36    1
    42    35    37    1
    43    36    42    1
    44    20    21   ar
    45    21    22   ar
@<TRIPOS>MOLECULE
*****
 43 45 0 0 0
SMALL
GASTEIGER

@<TRIPOS>ATOM
      1 P          21.7926   73.8466   -5.5513 P.3     1  UNL1        0.2189
      2 O          20.4935   74.5793   -4.9243 O.co2   1  UNL1       -0.4371
      3 O          23.0161   74.7086   -5.6590 O.2     1  UNL1       -0.5170
      4 O          21.2514   73.2181   -6.9405 O.3     1  UNL1       -0.3112
      5 C          20.3226   73.9670   -7.7049 C.3     1  UNL1        0.1811
      6 O          19.6902   71.7183   -8.2684 O.3     1  UNL1       -0.3308
      7 O          18.0208   72.9320  -10.4434 O.3     1  UNL1       -0.3794
      8 O          16.1752   72.3881   -8.5109 O.3     1  UNL1       -0.3779
      9 C          18.2867   73.4222   -9.1302 C.3     1  UNL1        0.1713
     10 C          17.5073   72.6264   -8.1042 C.3     1  UNL1        0.1895
     11 C          19.7268   73.0686   -8.7801 C.3     1  UNL1        0.1764
     12 C          18.3260   71.3503   -8.0069 C.3     1  UNL1        0.2383
     13 H          17.1067   73.1463  -10.6894 H       1  UNL1        0.2105
     14 H          15.6958   73.2299   -8.5577 H       1  UNL1        0.2106
     15 O          16.0588   69.9889   -7.0148 O.2     1  UNL1       -0.2464
     16 O          18.1356   69.0755   -3.0031 O.2     1  UNL1       -0.2670
     17 N          18.2470   70.7466   -6.7066 N.ar    1  UNL1       -0.2551
     18 N          17.0948   69.5350   -5.0181 N.ar    1  UNL1       -0.2743
     19 C          17.0618   70.0875   -6.3049 C.ar    1  UNL1        0.3323
     20 C          19.3367   70.8113   -5.8451 C.ar    1  UNL1        0.0869
     21 C          19.3517   70.2805   -4.6207 C.ar    1  UNL1        0.0795
     22 C          18.1531   69.5742   -4.1241 C.ar    1  UNL1        0.2626
     23 H          16.2801   69.0712   -4.7166 H       1  UNL1        0.1734
     24 O          21.9670   72.5459   -4.6076 O.3     1  UNL1       -0.2703
     25 P          23.0595   72.2004   -3.4674 P.3     1  UNL1        0.2208
     26 O          24.2870   73.1950   -3.8161 O.co2   1  UNL1       -0.4371
     27 O          23.4387   70.7495   -3.3979 O.2     1  UNL1       -0.5170
     28 O          22.4292   72.7930   -2.1048 O.3     1  UNL1       -0.2858
     29 O          21.6321   71.2683   -0.4749 O.3     1  UNL1       -0.3258
     30 O          19.6319   74.6623    0.7623 O.3     1  UNL1       -0.3794
     31 O          21.8342   73.6691    2.3152 O.3     1  UNL1       -0.3794
     32 O          19.9627   74.1308   -2.0639 O.3     1  UNL1       -0.3775
     33 C          20.7244   73.9218    0.2115 C.3     1  UNL1        0.1715
     34 C          21.2121   72.9289    1.2685 C.3     1  UNL1        0.1694
     35 C          20.2480   73.1850   -1.0389 C.3     1  UNL1        0.1967
     36 C          22.2000   71.9203    0.6671 C.3     1  UNL1        0.1761
     37 C          21.2846   72.1712   -1.5265 C.3     1  UNL1        0.2704
     38 H          19.9278   75.1329    1.5564 H       1  UNL1        0.2105
     39 H          21.1999   74.3026    2.6860 H       1  UNL1        0.2105
     40 H          19.3051   74.7667   -1.7430 H       1  UNL1        0.2106
     41 O          22.7395   69.6106    0.9559 O.3     1  UNL1       -0.3794
     42 C          22.5779   70.8262    1.6633 C.3     1  UNL1        0.1693
     43 H          22.9805   68.9052    1.5772 H       1  UNL1        0.2105
@<TRIPOS>UNITY_ATOM_ATTR
2 1
charge -1
26 1
charge -1
@<TRIPOS>BOND
     1    25    28    1
     2    25    24    1
     3    25    26    1
     4    25    27    2
     5     1     4    1
     6     1    24    1
     7     1     2    1
     8     1     3    2
     9     6    11    1
    10     6    12    1
    11    29    36    1
    12    29    37    1
    13     7     9    1
    14     7    13    1
    15     8    10    1
    16     8    14    1
    17    28    37    1
    18     4     5    1
    19    30    33    1
    20    30    38    1
    21    31    34    1
    22    31    39    1
    23    32    35    1
    24    32    40    1
    25    41    42    1
    26    41    43    1
    27    15    19    2
    28    16    22    2
    29    17    12    1
    30    17    19   ar
    31    17    20   ar
    32    18    19   ar
    33    18    22   ar
    34    18    23    1
    35     9    10    1
    36     9    11    1
    37    10    12    1
    38    11     5    1
    39    33    34    1
    40    33    35    1
    41    34    36    1
    42    35    37    1
    43    36    42    1
    44    20    21   ar
    45    21    22   ar
@<TRIPOS>MOLECULE
*****
 43 45 0 0 0
SMALL
GASTEIGER

@<TRIPOS>ATOM
      1 P          21.8144   70.5602   -1.0139 P.3     1  UNL1        0.2189
      2 O          23.2758   69.9780   -0.6364 O.co2   1  UNL1       -0.4371
      3 O          20.8276   70.5770    0.1164 O.2     1  UNL1       -0.5170
      4 O          21.3784   69.7022   -2.3145 O.3     1  UNL1       -0.3112
      5 C          20.9394   70.3986   -3.4678 C.3     1  UNL1        0.1811
      6 O          19.1263   71.6792   -4.3877 O.3     1  UNL1       -0.3308
      7 O          17.4196   70.4467   -2.2525 O.3     1  UNL1       -0.3794
      8 O          16.7761   68.9708   -4.4535 O.3     1  UNL1       -0.3779
      9 C          18.4965   69.8716   -2.9906 C.3     1  UNL1        0.1713
     10 C          18.0579   69.5638   -4.4071 C.3     1  UNL1        0.1895
     11 C          19.5455   70.9545   -3.2107 C.3     1  UNL1        0.1764
     12 C          18.0897   70.9388   -5.0526 C.3     1  UNL1        0.2383
     13 H          16.7371   69.7738   -2.0994 H       1  UNL1        0.2105
     14 H          16.8078   68.0985   -4.0307 H       1  UNL1        0.2106
     15 O          16.1812   70.4091   -7.0664 O.2     1  UNL1       -0.2464
     16 O          19.3438   70.7293  -10.4036 O.2     1  UNL1       -0.2670
     17 N          18.3868   70.8782   -6.4560 N.ar    1  UNL1       -0.2551
     18 N          17.7575   70.5692   -8.7264 N.ar    1  UNL1       -0.2743
     19 C          17.3560   70.6043   -7.3849 C.ar    1  UNL1        0.3323
     20 C          19.6881   71.0894   -6.8986 C.ar    1  UNL1        0.0869
     21 C          20.0548   71.0512   -8.1813 C.ar    1  UNL1        0.0795
     22 C          19.0382   70.7712   -9.2159 C.ar    1  UNL1        0.2626
     23 H          17.0563   70.3797   -9.3915 H       1  UNL1        0.1734
     24 O          22.1515   72.0144   -1.6342 O.3     1  UNL1       -0.2703
     25 P          21.8710   73.5016   -1.0665 P.3     1  UNL1        0.2208
     26 O          23.1165   73.7581   -0.0663 O.co2   1  UNL1       -0.4371
     27 O          20.5214   73.6736   -0.4317 O.2     1  UNL1       -0.5170
     28 O          22.1488   74.4772   -2.3219 O.3     1  UNL1       -0.2858
     29 O          20.6366   74.7753   -4.1223 O.3     1  UNL1       -0.3258
     30 O          24.1696   75.6360   -6.0787 O.3     1  UNL1       -0.3794
     31 O          22.3376   77.7595   -5.4602 O.3     1  UNL1       -0.3794
     32 O          24.0898   73.5179   -4.1072 O.3     1  UNL1       -0.3775
     33 C          23.2671   75.6110   -4.9696 C.3     1  UNL1        0.1715
     34 C          22.0029   76.3779   -5.3626 C.3     1  UNL1        0.1694
     35 C          22.9321   74.1595   -4.6313 C.3     1  UNL1        0.1967
     36 C          20.8859   76.1703   -4.3310 C.3     1  UNL1        0.1761
     37 C          21.7760   74.0643   -3.6341 C.3     1  UNL1        0.2704
     38 H          24.3868   76.5548   -6.2983 H       1  UNL1        0.2105
     39 H          23.0443   77.8768   -6.1144 H       1  UNL1        0.2105
     40 H          24.8143   73.5848   -4.7479 H       1  UNL1        0.2106
     41 O          19.6533   77.0757   -6.1667 O.3     1  UNL1       -0.3794
     42 C          19.5678   76.7964   -4.7814 C.3     1  UNL1        0.1693
     43 H          18.8212   77.4744   -6.4674 H       1  UNL1        0.2105
@<TRIPOS>UNITY_ATOM_ATTR
2 1
charge -1
26 1
charge -1
@<TRIPOS>BOND
     1    25    28    1
     2    25    24    1
     3    25    26    1
     4    25    27    2
     5     1     4    1
     6     1    24    1
     7     1     2    1
     8     1     3    2
     9     6    11    1
    10     6    12    1
    11    29    36    1
    12    29    37    1
    13     7     9    1
    14     7    13    1
    15     8    10    1
    16     8    14    1
    17    28    37    1
    18     4     5    1
    19    30    33    1
    20    30    38    1
    21    31    34    1
    22    31    39    1
    23    32    35    1
    24    32    40    1
    25    41    42    1
    26    41    43    1
    27    15    19    2
    28    16    22    2
    29    17    12    1
    30    17    19   ar
    31    17    20   ar
    32    18    19   ar
    33    18    22   ar
    34    18    23    1
    35     9    10    1
    36     9    11    1
    37    10    12    1
    38    11     5    1
    39    33    34    1
    40    33    35    1
    41    34    36    1
    42    35    37    1
    43    36    42    1
    44    20    21   ar
    45    21    22   ar
@<TRIPOS>MOLECULE
*****
 43 45 0 0 0
SMALL
GASTEIGER

@<TRIPOS>ATOM
      1 P          22.5392   73.4228   -2.2551 P.3     1  UNL1        0.2189
      2 O          22.4165   74.8682   -1.5386 O.co2   1  UNL1       -0.4371
      3 O          23.8108   73.2004   -3.0198 O.2     1  UNL1       -0.5170
      4 O          21.1726   73.2970   -3.1122 O.3     1  UNL1       -0.3112
      5 C          20.6246   72.0078   -3.3255 C.3     1  UNL1        0.1811
      6 O          18.5356   72.4722   -4.4183 O.3     1  UNL1       -0.3308
      7 O          17.2385   70.9848   -2.1610 O.3     1  UNL1       -0.3794
      8 O          17.2514   69.1333   -4.1631 O.3     1  UNL1       -0.3779
      9 C          18.4841   70.7331   -2.8094 C.3     1  UNL1        0.1713
     10 C          18.2514   70.1315   -4.1797 C.3     1  UNL1        0.1895
     11 C          19.1133   72.0771   -3.1548 C.3     1  UNL1        0.1764
     12 C          17.8486   71.3491   -4.9941 C.3     1  UNL1        0.2383
     13 H          16.8179   70.1410   -1.9304 H       1  UNL1        0.2105
     14 H          17.5549   68.3801   -3.6327 H       1  UNL1        0.2106
     15 O          16.2034   70.2389   -7.0037 O.2     1  UNL1       -0.2464
     16 O          19.3869   70.9504  -10.2595 O.2     1  UNL1       -0.2670
     17 N          18.2223   71.2321   -6.3754 N.ar    1  UNL1       -0.2551
     18 N          17.7898   70.5943   -8.6232 N.ar    1  UNL1       -0.2743
     19 C          17.3230   70.6583   -7.3041 C.ar    1  UNL1        0.3323
     20 C          19.4681   71.6839   -6.7970 C.ar    1  UNL1        0.0869
     21 C          19.8986   71.6145   -8.0584 C.ar    1  UNL1        0.0795
     22 C          19.0199   71.0285   -9.0911 C.ar    1  UNL1        0.2626
     23 H          17.1805   70.1979   -9.2876 H       1  UNL1        0.1734
     24 O          22.2988   72.3906   -1.0345 O.3     1  UNL1       -0.2703
     25 P          21.3941   72.5159    0.2992 P.3     1  UNL1        0.2208
     26 O          21.3484   70.9992    0.8604 O.co2   1  UNL1       -0.4371
     27 O          20.0445   73.1329    0.0716 O.2     1  UNL1       -0.5170
     28 O          22.3247   73.3118    1.3507 O.3     1  UNL1       -0.2858
     29 O          23.8594   73.2242    3.1545 O.3     1  UNL1       -0.3258
     30 O          20.4571   74.2965    5.2344 O.3     1  UNL1       -0.3794
     31 O          22.5389   76.2324    4.8266 O.3     1  UNL1       -0.3794
     32 O          20.2771   72.4111    3.0452 O.3     1  UNL1       -0.3775
     33 C          21.3513   74.2808    4.1183 C.3     1  UNL1        0.1715
     34 C          22.7001   74.8389    4.5766 C.3     1  UNL1        0.1694
     35 C          21.5045   72.8445    3.6215 C.3     1  UNL1        0.1967
     36 C          23.7844   74.6083    3.5154 C.3     1  UNL1        0.1761
     37 C          22.6415   72.7162    2.6062 C.3     1  UNL1        0.2704
     38 H          20.3551   75.2057    5.5543 H       1  UNL1        0.2105
     39 H          21.8512   76.3642    5.4980 H       1  UNL1        0.2105
     40 H          19.5655   72.4969    3.6979 H       1  UNL1        0.2106
     41 O          25.6079   74.0519    4.9556 O.3     1  UNL1       -0.3794
     42 C          25.1692   75.0147    4.0149 C.3     1  UNL1        0.1693
     43 H          26.4882   74.2974    5.2820 H       1  UNL1        0.2105
@<TRIPOS>UNITY_ATOM_ATTR
2 1
charge -1
26 1
charge -1
@<TRIPOS>BOND
     1    25    28    1
     2    25    24    1
     3    25    26    1
     4    25    27    2
     5     1     4    1
     6     1    24    1
     7     1     2    1
     8     1     3    2
     9     6    11    1
    10     6    12    1
    11    29    36    1
    12    29    37    1
    13     7     9    1
    14     7    13    1
    15     8    10    1
    16     8    14    1
    17    28    37    1
    18     4     5    1
    19    30    33    1
    20    30    38    1
    21    31    34    1
    22    31    39    1
    23    32    35    1
    24    32    40    1
    25    41    42    1
    26    41    43    1
    27    15    19    2
    28    16    22    2
    29    17    12    1
    30    17    19   ar
    31    17    20   ar
    32    18    19   ar
    33    18    22   ar
    34    18    23    1
    35     9    10    1
    36     9    11    1
    37    10    12    1
    38    11     5    1
    39    33    34    1
    40    33    35    1
    41    34    36    1
    42    35    37    1
    43    36    42    1
    44    20    21   ar
    45    21    22   ar
@<TRIPOS>MOLECULE
*****
 43 45 0 0 0
SMALL
GASTEIGER

@<TRIPOS>ATOM
      1 P          22.0325   70.5075   -0.2809 P.3     1  UNL1        0.2189
      2 O          20.7750   69.8891   -1.0893 O.co2   1  UNL1       -0.4371
      3 O          23.1364   69.5350    0.0142 O.2     1  UNL1       -0.5170
      4 O          21.3561   71.2148    1.0075 O.3     1  UNL1       -0.3112
      5 C          21.9486   72.3960    1.5191 C.3     1  UNL1        0.1811
      6 O          22.8078   73.0515    3.6653 O.3     1  UNL1       -0.3308
      7 O          19.9567   73.0666    4.5934 O.3     1  UNL1       -0.3794
      8 O          20.4637   75.7151    4.1878 O.3     1  UNL1       -0.3779
      9 C          20.4951   73.4416    3.3266 C.3     1  UNL1        0.1713
     10 C          21.2009   74.7775    3.4300 C.3     1  UNL1        0.1895
     11 C          21.6472   72.4969    3.0082 C.3     1  UNL1        0.1764
     12 C          22.5117   74.3907    4.0936 C.3     1  UNL1        0.2383
     13 H          19.2189   73.6557    4.8183 H       1  UNL1        0.2105
     14 H          19.6391   75.9290    3.7241 H       1  UNL1        0.2106
     15 O          24.5225   75.3042    5.8544 O.2     1  UNL1       -0.2464
     16 O          26.6155   77.6953    2.5163 O.2     1  UNL1       -0.2670
     17 N          23.5944   75.2527    3.7112 N.ar    1  UNL1       -0.2551
     18 N          25.5631   76.4939    4.1908 N.ar    1  UNL1       -0.2743
     19 C          24.5510   75.6540    4.6727 C.ar    1  UNL1        0.3323
     20 C          23.7000   75.6907    2.3956 C.ar    1  UNL1        0.0869
     21 C          24.6706   76.4925    1.9524 C.ar    1  UNL1        0.0795
     22 C          25.7102   76.9576    2.8931 C.ar    1  UNL1        0.2626
     23 H          26.2406   76.7866    4.8428 H       1  UNL1        0.1734
     24 O          22.4709   71.7649   -1.1973 O.3     1  UNL1       -0.2703
     25 P          22.6808   71.8920   -2.7951 P.3     1  UNL1        0.2208
     26 O          23.0589   70.3833   -3.2407 O.co2   1  UNL1       -0.4371
     27 O          23.6870   72.9288   -3.2030 O.2     1  UNL1       -0.5170
     28 O          21.1974   72.1314   -3.3842 O.3     1  UNL1       -0.2858
     29 O          20.1275   70.3659   -4.5484 O.3     1  UNL1       -0.3258
     30 O          17.9054   73.5399   -5.9763 O.3     1  UNL1       -0.3794
     31 O          16.7275   71.7166   -4.0958 O.3     1  UNL1       -0.3794
     32 O          20.7548   73.8414   -5.5648 O.3     1  UNL1       -0.3775
     33 C          18.6537   72.8067   -5.0027 C.3     1  UNL1        0.1715
     34 C          17.9559   71.4647   -4.7726 C.3     1  UNL1        0.1694
     35 C          20.0739   72.5920   -5.5227 C.3     1  UNL1        0.1967
     36 C          18.8363   70.5169   -3.9470 C.3     1  UNL1        0.1761
     37 C          20.8475   71.5954   -4.6577 C.3     1  UNL1        0.2704
     38 H          17.0027   73.6800   -5.6521 H       1  UNL1        0.2105
     39 H          16.1812   72.3166   -4.6275 H       1  UNL1        0.2105
     40 H          20.2552   74.4634   -6.1156 H       1  UNL1        0.2106
     41 O          18.2729   68.7142   -2.4835 O.3     1  UNL1       -0.3794
     42 C          18.2284   69.1202   -3.8391 C.3     1  UNL1        0.1693
     43 H          17.8890   67.8269   -2.3996 H       1  UNL1        0.2105
@<TRIPOS>UNITY_ATOM_ATTR
2 1
charge -1
26 1
charge -1
@<TRIPOS>BOND
     1    25    28    1
     2    25    24    1
     3    25    26    1
     4    25    27    2
     5     1     4    1
     6     1    24    1
     7     1     2    1
     8     1     3    2
     9     6    11    1
    10     6    12    1
    11    29    36    1
    12    29    37    1
    13     7     9    1
    14     7    13    1
    15     8    10    1
    16     8    14    1
    17    28    37    1
    18     4     5    1
    19    30    33    1
    20    30    38    1
    21    31    34    1
    22    31    39    1
    23    32    35    1
    24    32    40    1
    25    41    42    1
    26    41    43    1
    27    15    19    2
    28    16    22    2
    29    17    12    1
    30    17    19   ar
    31    17    20   ar
    32    18    19   ar
    33    18    22   ar
    34    18    23    1
    35     9    10    1
    36     9    11    1
    37    10    12    1
    38    11     5    1
    39    33    34    1
    40    33    35    1
    41    34    36    1
    42    35    37    1
    43    36    42    1
    44    20    21   ar
    45    21    22   ar
@<TRIPOS>MOLECULE
*****
 43 45 0 0 0
SMALL
GASTEIGER

@<TRIPOS>ATOM
      1 P          21.1046   73.5625   -1.9932 P.3     1  UNL1        0.2189
      2 O          21.6391   72.0356   -1.9742 O.co2   1  UNL1       -0.4371
      3 O          21.5611   74.4082   -0.8408 O.2     1  UNL1       -0.5170
      4 O          19.5027   73.4113   -2.1625 O.3     1  UNL1       -0.3112
      5 C          18.9428   73.5562   -3.4561 C.3     1  UNL1        0.1811
      6 O          16.9811   73.1103   -4.7701 O.3     1  UNL1       -0.3308
      7 O          15.9541   71.6089   -2.3865 O.3     1  UNL1       -0.3794
      8 O          16.8365   69.6072   -4.0148 O.3     1  UNL1       -0.3779
      9 C          17.2879   71.7109   -2.8825 C.3     1  UNL1        0.1713
     10 C          17.4483   70.8753   -4.1353 C.3     1  UNL1        0.1895
     11 C          17.4833   73.1246   -3.4159 C.3     1  UNL1        0.1764
     12 C          16.7815   71.7489   -5.1842 C.3     1  UNL1        0.2383
     13 H          15.8057   70.7145   -2.0400 H       1  UNL1        0.2105
     14 H          17.2963   69.0894   -3.3357 H       1  UNL1        0.2106
     15 O          16.0855   69.6642   -6.9585 O.2     1  UNL1       -0.2464
     16 O          19.0381   71.1607  -10.1653 O.2     1  UNL1       -0.2670
     17 N          17.3525   71.5700   -6.4894 N.ar    1  UNL1       -0.2551
     18 N          17.5561   70.4112   -8.5538 N.ar    1  UNL1       -0.2743
     19 C          16.9344   70.4899   -7.3011 C.ar    1  UNL1        0.3323
     20 C          18.3154   72.4600   -6.9524 C.ar    1  UNL1        0.0869
     21 C          18.8996   72.3703   -8.1491 C.ar    1  UNL1        0.0795
     22 C          18.5192   71.2704   -9.0587 C.ar    1  UNL1        0.2626
     23 H          17.2810   69.6664   -9.1364 H       1  UNL1        0.1734
     24 O          21.5749   74.0941   -3.4455 O.3     1  UNL1       -0.2703
     25 P          22.5425   73.4297   -4.5569 P.3     1  UNL1        0.2208
     26 O          21.6771   72.1752   -5.1000 O.co2   1  UNL1       -0.4371
     27 O          23.9069   73.0664   -4.0468 O.2     1  UNL1       -0.5170
     28 O          22.5442   74.4834   -5.7795 O.3     1  UNL1       -0.2858
     29 O          21.0294   75.5848   -7.2317 O.3     1  UNL1       -0.3258
     30 O          23.5237   73.8825  -10.0479 O.3     1  UNL1       -0.3794
     31 O          23.6299   76.7152   -9.5871 O.3     1  UNL1       -0.3794
     32 O          22.8369   72.4126   -7.6506 O.3     1  UNL1       -0.3775
     33 C          23.1970   74.4987   -8.7994 C.3     1  UNL1        0.1715
     34 C          22.5935   75.8748   -9.0872 C.3     1  UNL1        0.1694
     35 C          22.1958   73.6176   -8.0547 C.3     1  UNL1        0.1967
     36 C          21.9752   76.4842   -7.8217 C.3     1  UNL1        0.1761
     37 C          21.6043   74.3364   -6.8408 C.3     1  UNL1        0.2704
     38 H          24.1596   74.4367  -10.5256 H       1  UNL1        0.2105
     39 H          24.0123   76.3188  -10.3858 H       1  UNL1        0.2105
     40 H          23.2068   71.9668   -8.4280 H       1  UNL1        0.2106
     41 O          20.8696   77.7930   -9.4872 O.3     1  UNL1       -0.3794
     42 C          21.2300   77.7838   -8.1181 C.3     1  UNL1        0.1693
     43 H          20.3942   78.6143   -9.6902 H       1  UNL1        0.2105
@<TRIPOS>UNITY_ATOM_ATTR
2 1
charge -1
26 1
charge -1
@<TRIPOS>BOND
     1    25    28    1
     2    25    24    1
     3    25    26    1
     4    25    27    2
     5     1     4    1
     6     1    24    1
     7     1     2    1
     8     1     3    2
     9     6    11    1
    10     6    12    1
    11    29    36    1
    12    29    37    1
    13     7     9    1
    14     7    13    1
    15     8    10    1
    16     8    14    1
    17    28    37    1
    18     4     5    1
    19    30    33    1
    20    30    38    1
    21    31    34    1
    22    31    39    1
    23    32    35    1
    24    32    40    1
    25    41    42    1
    26    41    43    1
    27    15    19    2
    28    16    22    2
    29    17    12    1
    30    17    19   ar
    31    17    20   ar
    32    18    19   ar
    33    18    22   ar
    34    18    23    1
    35     9    10    1
    36     9    11    1
    37    10    12    1
    38    11     5    1
    39    33    34    1
    40    33    35    1
    41    34    36    1
    42    35    37    1
    43    36    42    1
    44    20    21   ar
    45    21    22   ar
@<TRIPOS>MOLECULE
*****
 43 45 0 0 0
SMALL
GASTEIGER

@<TRIPOS>ATOM
      1 P          22.1177   70.4771   -0.2781 P.3     1  UNL1        0.2189
      2 O          20.8528   69.8337   -1.0550 O.co2   1  UNL1       -0.4371
      3 O          23.2216   69.5130    0.0429 O.2     1  UNL1       -0.5170
      4 O          21.4524   71.2309    0.9897 O.3     1  UNL1       -0.3112
      5 C          22.1417   72.3289    1.5615 C.3     1  UNL1        0.1811
      6 O          22.8423   73.0230    3.7526 O.3     1  UNL1       -0.3308
      7 O          19.9284   73.0999    4.4556 O.3     1  UNL1       -0.3794
      8 O          20.5070   75.7307    4.0311 O.3     1  UNL1       -0.3779
      9 C          20.5692   73.4373    3.2264 C.3     1  UNL1        0.1713
     10 C          21.2859   74.7653    3.3543 C.3     1  UNL1        0.1895
     11 C          21.7275   72.4693    3.0199 C.3     1  UNL1        0.1764
     12 C          22.5351   74.3761    4.1264 C.3     1  UNL1        0.2383
     13 H          19.1848   73.7044    4.6090 H       1  UNL1        0.2105
     14 H          19.7243   75.9451    3.4999 H       1  UNL1        0.2106
     15 O          24.4018   75.3256    6.0216 O.2     1  UNL1       -0.2464
     16 O          26.8010   77.5836    2.7988 O.2     1  UNL1       -0.2670
     17 N          23.6576   75.2135    3.8101 N.ar    1  UNL1       -0.2551
     18 N          25.5950   76.4490    4.4153 N.ar    1  UNL1       -0.2743
     19 C          24.5347   75.6361    4.8360 C.ar    1  UNL1        0.3323
     20 C          23.8798   75.6070    2.4949 C.ar    1  UNL1        0.0869
     21 C          24.8949   76.3835    2.1104 C.ar    1  UNL1        0.0795
     22 C          25.8574   76.8682    3.1207 C.ar    1  UNL1        0.2626
     23 H          26.2188   76.7558    5.1129 H       1  UNL1        0.1734
     24 O          22.5518   71.7005   -1.2413 O.3     1  UNL1       -0.2703
     25 P          22.8881   71.7394   -2.8219 P.3     1  UNL1        0.2208
     26 O          23.7475   70.3880   -3.0517 O.co2   1  UNL1       -0.4371
     27 O          23.5758   72.9950   -3.2741 O.2     1  UNL1       -0.5170
     28 O          21.4752   71.4522   -3.5473 O.3     1  UNL1       -0.2858
     29 O          21.0394   73.1669   -5.1242 O.3     1  UNL1       -0.3258
     30 O          17.4535   71.1324   -5.3538 O.3     1  UNL1       -0.3794
     31 O          19.3283   70.9506   -7.5218 O.3     1  UNL1       -0.3794
     32 O          18.7713   71.4516   -2.7963 O.3     1  UNL1       -0.3775
     33 C          18.8687   71.2646   -5.1956 C.3     1  UNL1        0.1715
     34 C          19.4359   71.9013   -6.4660 C.3     1  UNL1        0.1694
     35 C          19.1551   72.1436   -3.9796 C.3     1  UNL1        0.1967
     36 C          20.8995   72.3192   -6.2703 C.3     1  UNL1        0.1761
     37 C          20.6301   72.5424   -3.9058 C.3     1  UNL1        0.2704
     38 H          17.2648   70.5750   -6.1240 H       1  UNL1        0.2105
     39 H          18.3993   70.6947   -7.6347 H       1  UNL1        0.2105
     40 H          17.8356   71.2049   -2.8552 H       1  UNL1        0.2106
     41 O          22.7831   72.7153   -7.6859 O.3     1  UNL1       -0.3794
     42 C          21.4372   73.0975   -7.4691 C.3     1  UNL1        0.1693
     43 H          23.1384   73.2025   -8.4462 H       1  UNL1        0.2105
@<TRIPOS>UNITY_ATOM_ATTR
2 1
charge -1
26 1
charge -1
@<TRIPOS>BOND
     1    25    28    1
     2    25    24    1
     3    25    26    1
     4    25    27    2
     5     1     4    1
     6     1    24    1
     7     1     2    1
     8     1     3    2
     9     6    11    1
    10     6    12    1
    11    29    36    1
    12    29    37    1
    13     7     9    1
    14     7    13    1
    15     8    10    1
    16     8    14    1
    17    28    37    1
    18     4     5    1
    19    30    33    1
    20    30    38    1
    21    31    34    1
    22    31    39    1
    23    32    35    1
    24    32    40    1
    25    41    42    1
    26    41    43    1
    27    15    19    2
    28    16    22    2
    29    17    12    1
    30    17    19   ar
    31    17    20   ar
    32    18    19   ar
    33    18    22   ar
    34    18    23    1
    35     9    10    1
    36     9    11    1
    37    10    12    1
    38    11     5    1
    39    33    34    1
    40    33    35    1
    41    34    36    1
    42    35    37    1
    43    36    42    1
    44    20    21   ar
    45    21    22   ar
@<TRIPOS>MOLECULE
*****
 43 45 0 0 0
SMALL
GASTEIGER

@<TRIPOS>ATOM
      1 P          22.0447   73.5034   -5.4417 P.3     1  UNL1        0.2189
      2 O          22.0936   75.0581   -5.8869 O.co2   1  UNL1       -0.4371
      3 O          23.3590   72.9285   -5.0017 O.2     1  UNL1       -0.5170
      4 O          21.3380   72.7627   -6.6945 O.3     1  UNL1       -0.3112
      5 C          20.6101   73.5489   -7.6219 C.3     1  UNL1        0.1811
      6 O          19.8299   71.3173   -8.0523 O.3     1  UNL1       -0.3308
      7 O          18.2350   72.5082  -10.2948 O.3     1  UNL1       -0.3794
      8 O          16.3653   72.2006   -8.3337 O.3     1  UNL1       -0.3779
      9 C          18.5375   73.0560   -9.0127 C.3     1  UNL1        0.1713
     10 C          17.7117   72.3745   -7.9416 C.3     1  UNL1        0.1895
     11 C          19.9527   72.6300   -8.6425 C.3     1  UNL1        0.1764
     12 C          18.4456   71.0554   -7.7696 C.3     1  UNL1        0.2383
     13 H          17.3360   72.7671  -10.5529 H       1  UNL1        0.2105
     14 H          15.9418   73.0678   -8.4298 H       1  UNL1        0.2106
     15 O          16.1445   69.7772   -6.7454 O.2     1  UNL1       -0.2464
     16 O          18.1238   69.1019   -2.6384 O.2     1  UNL1       -0.2670
     17 N          18.3323   70.5355   -6.4361 N.ar    1  UNL1       -0.2551
     18 N          17.1320   69.4418   -4.7013 N.ar    1  UNL1       -0.2743
     19 C          17.1325   69.9124   -6.0206 C.ar    1  UNL1        0.3323
     20 C          19.4033   70.6457   -5.5560 C.ar    1  UNL1        0.0869
     21 C          19.3864   70.1929   -4.3006 C.ar    1  UNL1        0.0795
     22 C          18.1706   69.5288   -3.7879 C.ar    1  UNL1        0.2626
     23 H          16.3065   69.0044   -4.3897 H       1  UNL1        0.1734
     24 O          20.8901   73.4855   -4.3105 O.3     1  UNL1       -0.2703
     25 P          20.8776   74.0538   -2.7973 P.3     1  UNL1        0.2208
     26 O          19.3326   74.4783   -2.5732 O.co2   1  UNL1       -0.4371
     27 O          21.8654   75.1560   -2.5457 O.2     1  UNL1       -0.5170
     28 O          21.0805   72.7490   -1.8692 O.3     1  UNL1       -0.2858
     29 O          22.9153   73.1994   -0.4383 O.3     1  UNL1       -0.3258
     30 O          22.0978   69.3261    0.7363 O.3     1  UNL1       -0.3794
     31 O          21.4449   71.5066    2.4876 O.3     1  UNL1       -0.3794
     32 O          21.8796   70.0653   -2.0539 O.3     1  UNL1       -0.3775
     33 C          21.7800   70.6444    0.2819 C.3     1  UNL1        0.1715
     34 C          22.2675   71.6442    1.3323 C.3     1  UNL1        0.1694
     35 C          22.4722   70.8911   -1.0573 C.3     1  UNL1        0.1967
     36 C          22.2046   73.0821    0.7997 C.3     1  UNL1        0.1761
     37 C          22.3932   72.3616   -1.4715 C.3     1  UNL1        0.2704
     38 H          21.6610   69.1628    1.5861 H       1  UNL1        0.2105
     39 H          21.4932   70.5942    2.8136 H       1  UNL1        0.2105
     40 H          21.9363   69.1370   -1.7801 H       1  UNL1        0.2106
     41 O          21.9569   74.2483    2.8704 O.3     1  UNL1       -0.3794
     42 C          22.8324   74.0797    1.7707 C.3     1  UNL1        0.1693
     43 H          22.3436   74.8804    3.4969 H       1  UNL1        0.2105
@<TRIPOS>UNITY_ATOM_ATTR
2 1
charge -1
26 1
charge -1
@<TRIPOS>BOND
     1    25    28    1
     2    25    24    1
     3    25    26    1
     4    25    27    2
     5     1     4    1
     6     1    24    1
     7     1     2    1
     8     1     3    2
     9     6    11    1
    10     6    12    1
    11    29    36    1
    12    29    37    1
    13     7     9    1
    14     7    13    1
    15     8    10    1
    16     8    14    1
    17    28    37    1
    18     4     5    1
    19    30    33    1
    20    30    38    1
    21    31    34    1
    22    31    39    1
    23    32    35    1
    24    32    40    1
    25    41    42    1
    26    41    43    1
    27    15    19    2
    28    16    22    2
    29    17    12    1
    30    17    19   ar
    31    17    20   ar
    32    18    19   ar
    33    18    22   ar
    34    18    23    1
    35     9    10    1
    36     9    11    1
    37    10    12    1
    38    11     5    1
    39    33    34    1
    40    33    35    1
    41    34    36    1
    42    35    37    1
    43    36    42    1
    44    20    21   ar
    45    21    22   ar
@<TRIPOS>MOLECULE
*****
 43 45 0 0 0
SMALL
GASTEIGER

@<TRIPOS>ATOM
      1 P          22.5852   73.0627   -4.2635 P.3     1  UNL1        0.2189
      2 O          22.1096   72.4518   -5.6841 O.co2   1  UNL1       -0.4371
      3 O          24.0288   72.8319   -3.9258 O.2     1  UNL1       -0.5170
      4 O          21.5128   72.4694   -3.2071 O.3     1  UNL1       -0.3112
      5 C          20.7124   71.3689   -3.6021 C.3     1  UNL1        0.1811
      6 O          18.7505   72.2018   -4.7116 O.3     1  UNL1       -0.3308
      7 O          17.1964   71.0648   -2.4132 O.3     1  UNL1       -0.3794
      8 O          16.8373   69.1887   -4.3595 O.3     1  UNL1       -0.3779
      9 C          18.3656   70.5547   -3.0519 C.3     1  UNL1        0.1713
     10 C          18.0137   69.9704   -4.4040 C.3     1  UNL1        0.1895
     11 C          19.2448   71.7383   -3.4359 C.3     1  UNL1        0.1764
     12 C          17.8541   71.2188   -5.2549 C.3     1  UNL1        0.2383
     13 H          16.6194   70.3271   -2.1584 H       1  UNL1        0.2105
     14 H          16.9895   68.4065   -3.8064 H       1  UNL1        0.2106
     15 O          16.0253   70.3467   -7.2228 O.2     1  UNL1       -0.2464
     16 O          19.2616   70.3738  -10.5041 O.2     1  UNL1       -0.2670
     17 N          18.1917   70.9902   -6.6316 N.ar    1  UNL1       -0.2551
     18 N          17.6382   70.3611   -8.8551 N.ar    1  UNL1       -0.2743
     19 C          17.1991   70.5518   -7.5387 C.ar    1  UNL1        0.3323
     20 C          19.4946   71.2008   -7.0698 C.ar    1  UNL1        0.0869
     21 C          19.8974   71.0131   -8.3282 C.ar    1  UNL1        0.0795
     22 C          18.9222   70.5556   -9.3390 C.ar    1  UNL1        0.2626
     23 H          16.9640   70.0555   -9.5046 H       1  UNL1        0.1734
     24 O          22.1612   74.6185   -4.3767 O.3     1  UNL1       -0.2703
     25 P          21.4000   75.4286   -5.5502 P.3     1  UNL1        0.2208
     26 O          21.5016   76.9684   -5.0642 O.co2   1  UNL1       -0.4371
     27 O          20.0008   74.9547   -5.8175 O.2     1  UNL1       -0.5170
     28 O          22.3917   75.3358   -6.8202 O.3     1  UNL1       -0.2858
     29 O          21.7379   76.3829   -8.8432 O.3     1  UNL1       -0.3258
     30 O          24.5763   73.7808  -10.3345 O.3     1  UNL1       -0.3794
     31 O          25.1590   76.5899  -10.2007 O.3     1  UNL1       -0.3794
     32 O          22.8164   72.9292   -8.1997 O.3     1  UNL1       -0.3775
     33 C          23.9999   74.6685   -9.3726 C.3     1  UNL1        0.1715
     34 C          23.8539   76.0473  -10.0194 C.3     1  UNL1        0.1694
     35 C          22.6362   74.1269   -8.9478 C.3     1  UNL1        0.1967
     36 C          23.0034   76.9809   -9.1476 C.3     1  UNL1        0.1761
     37 C          21.8522   75.1520   -8.1265 C.3     1  UNL1        0.2704
     38 H          25.4426   74.1187  -10.6080 H       1  UNL1        0.2105
     39 H          25.6859   75.9905  -10.7524 H       1  UNL1        0.2105
     40 H          23.3137   72.2883   -8.7306 H       1  UNL1        0.2106
     41 O          23.0285   78.1721  -11.2187 O.3     1  UNL1       -0.3794
     42 C          22.7134   78.3081   -9.8452 C.3     1  UNL1        0.1693
     43 H          22.8485   79.0092  -11.6755 H       1  UNL1        0.2105
@<TRIPOS>UNITY_ATOM_ATTR
2 1
charge -1
26 1
charge -1
@<TRIPOS>BOND
     1    25    28    1
     2    25    24    1
     3    25    26    1
     4    25    27    2
     5     1     4    1
     6     1    24    1
     7     1     2    1
     8     1     3    2
     9     6    11    1
    10     6    12    1
    11    29    36    1
    12    29    37    1
    13     7     9    1
    14     7    13    1
    15     8    10    1
    16     8    14    1
    17    28    37    1
    18     4     5    1
    19    30    33    1
    20    30    38    1
    21    31    34    1
    22    31    39    1
    23    32    35    1
    24    32    40    1
    25    41    42    1
    26    41    43    1
    27    15    19    2
    28    16    22    2
    29    17    12    1
    30    17    19   ar
    31    17    20   ar
    32    18    19   ar
    33    18    22   ar
    34    18    23    1
    35     9    10    1
    36     9    11    1
    37    10    12    1
    38    11     5    1
    39    33    34    1
    40    33    35    1
    41    34    36    1
    42    35    37    1
    43    36    42    1
    44    20    21   ar
    45    21    22   ar
@<TRIPOS>MOLECULE
*****
 43 45 0 0 0
SMALL
GASTEIGER

@<TRIPOS>ATOM
      1 P          22.5430   72.1477   -2.2350 P.3     1  UNL1        0.2189
      2 O          23.5129   71.4026   -3.2941 O.co2   1  UNL1       -0.4371
      3 O          23.1426   72.3761   -0.8786 O.2     1  UNL1       -0.5170
      4 O          21.1863   71.2667   -2.2643 O.3     1  UNL1       -0.3112
      5 C          20.5468   71.0512   -3.5102 C.3     1  UNL1        0.1811
      6 O          18.6872   72.0275   -4.6775 O.3     1  UNL1       -0.3308
      7 O          16.9623   70.8659   -2.5173 O.3     1  UNL1       -0.3794
      8 O          16.6204   69.0985   -4.5657 O.3     1  UNL1       -0.3779
      9 C          18.1389   70.3285   -3.1191 C.3     1  UNL1        0.1713
     10 C          17.8324   69.8231   -4.5135 C.3     1  UNL1        0.1895
     11 C          19.0910   71.4839   -3.4017 C.3     1  UNL1        0.1764
     12 C          17.7763   71.1147   -5.3115 C.3     1  UNL1        0.2383
     13 H          16.3391   70.1466   -2.3273 H       1  UNL1        0.2105
     14 H          16.7066   68.2859   -4.0432 H       1  UNL1        0.2106
     15 O          16.0152   70.4256   -7.4096 O.2     1  UNL1       -0.2464
     16 O          19.4195   70.4374  -10.5163 O.2     1  UNL1       -0.2670
     17 N          18.1754   70.9316   -6.6784 N.ar    1  UNL1       -0.2551
     18 N          17.7117   70.4322   -8.9548 N.ar    1  UNL1       -0.2743
     19 C          17.2127   70.5853   -7.6550 C.ar    1  UNL1        0.3323
     20 C          19.5084   71.0958   -7.0390 C.ar    1  UNL1        0.0869
     21 C          19.9684   70.9450   -8.2828 C.ar    1  UNL1        0.0795
     22 C          19.0276   70.5834   -9.3627 C.ar    1  UNL1        0.2626
     23 H          17.0593   70.1906   -9.6518 H       1  UNL1        0.1734
     24 O          22.1175   73.4962   -3.0182 O.3     1  UNL1       -0.2703
     25 P          22.6320   74.1175   -4.4190 P.3     1  UNL1        0.2208
     26 O          21.4366   75.1231   -4.8401 O.co2   1  UNL1       -0.4371
     27 O          22.9727   73.0904   -5.4595 O.2     1  UNL1       -0.5170
     28 O          23.8558   75.0874   -4.0107 O.3     1  UNL1       -0.2858
     29 O          26.1791   74.6209   -4.0429 O.3     1  UNL1       -0.3258
     30 O          26.0563   77.1355   -0.7698 O.3     1  UNL1       -0.3794
     31 O          27.1956   78.0709   -3.2346 O.3     1  UNL1       -0.3794
     32 O          23.9205   75.2315   -1.2089 O.3     1  UNL1       -0.3775
     33 C          25.6668   76.6556   -2.0596 C.3     1  UNL1        0.1715
     34 C          26.8894   76.7032   -2.9782 C.3     1  UNL1        0.1694
     35 C          25.1510   75.2241   -1.9247 C.3     1  UNL1        0.1967
     36 C          26.6229   75.9595   -4.2939 C.3     1  UNL1        0.1761
     37 C          24.9662   74.5594   -3.2900 C.3     1  UNL1        0.2704
     38 H          26.3844   78.0442   -0.8484 H       1  UNL1        0.2105
     39 H          27.3612   78.5292   -2.3957 H       1  UNL1        0.2105
     40 H          24.0509   75.6545   -0.3464 H       1  UNL1        0.2106
     41 O          28.1153   74.4935   -5.4482 O.3     1  UNL1       -0.3794
     42 C          27.8779   75.8587   -5.1582 C.3     1  UNL1        0.1693
     43 H          28.9110   74.4140   -5.9980 H       1  UNL1        0.2105
@<TRIPOS>UNITY_ATOM_ATTR
2 1
charge -1
26 1
charge -1
@<TRIPOS>BOND
     1    25    28    1
     2    25    24    1
     3    25    26    1
     4    25    27    2
     5     1     4    1
     6     1    24    1
     7     1     2    1
     8     1     3    2
     9     6    11    1
    10     6    12    1
    11    29    36    1
    12    29    37    1
    13     7     9    1
    14     7    13    1
    15     8    10    1
    16     8    14    1
    17    28    37    1
    18     4     5    1
    19    30    33    1
    20    30    38    1
    21    31    34    1
    22    31    39    1
    23    32    35    1
    24    32    40    1
    25    41    42    1
    26    41    43    1
    27    15    19    2
    28    16    22    2
    29    17    12    1
    30    17    19   ar
    31    17    20   ar
    32    18    19   ar
    33    18    22   ar
    34    18    23    1
    35     9    10    1
    36     9    11    1
    37    10    12    1
    38    11     5    1
    39    33    34    1
    40    33    35    1
    41    34    36    1
    42    35    37    1
    43    36    42    1
    44    20    21   ar
    45    21    22   ar
@<TRIPOS>MOLECULE
*****
 43 45 0 0 0
SMALL
GASTEIGER

@<TRIPOS>ATOM
      1 P          22.4173   73.3271   -4.3260 P.3     1  UNL1        0.2189
      2 O          21.6380   74.7428   -4.4023 O.co2   1  UNL1       -0.4371
      3 O          22.6096   72.6377   -5.6448 O.2     1  UNL1       -0.5170
      4 O          21.5966   72.4916   -3.2095 O.3     1  UNL1       -0.3112
      5 C          20.7904   71.4065   -3.6343 C.3     1  UNL1        0.1811
      6 O          18.8324   72.2508   -4.7421 O.3     1  UNL1       -0.3308
      7 O          17.2731   71.1176   -2.4454 O.3     1  UNL1       -0.3794
      8 O          16.9046   69.2465   -4.3947 O.3     1  UNL1       -0.3779
      9 C          18.4398   70.6029   -3.0851 C.3     1  UNL1        0.1713
     10 C          18.0848   70.0225   -4.4381 C.3     1  UNL1        0.1895
     11 C          19.3246   71.7829   -3.4673 C.3     1  UNL1        0.1764
     12 C          17.9312   71.2732   -5.2869 C.3     1  UNL1        0.2383
     13 H          16.6926   70.3823   -2.1917 H       1  UNL1        0.2105
     14 H          17.0530   68.4627   -3.8430 H       1  UNL1        0.2106
     15 O          16.1200   70.3253   -7.2360 O.2     1  UNL1       -0.2464
     16 O          19.3326   70.4346  -10.5388 O.2     1  UNL1       -0.2670
     17 N          18.2675   71.0452   -6.6640 N.ar    1  UNL1       -0.2551
     18 N          17.7211   70.3807   -8.8790 N.ar    1  UNL1       -0.2743
     19 C          17.2843   70.5669   -7.5612 C.ar    1  UNL1        0.3323
     20 C          19.5598   71.2957   -7.1124 C.ar    1  UNL1        0.0869
     21 C          19.9606   71.1117   -8.3720 C.ar    1  UNL1        0.0795
     22 C          18.9948   70.6141   -9.3728 C.ar    1  UNL1        0.2626
     23 H          17.0534   70.0477   -9.5217 H       1  UNL1        0.1734
     24 O          23.7886   73.7078   -3.5596 O.3     1  UNL1       -0.2703
     25 P          24.0808   74.7559   -2.3642 P.3     1  UNL1        0.2208
     26 O          23.5552   73.9744   -1.0487 O.co2   1  UNL1       -0.4371
     27 O          23.4641   76.1094   -2.5680 O.2     1  UNL1       -0.5170
     28 O          25.6879   74.7686   -2.2157 O.3     1  UNL1       -0.2858
     29 O          27.6569   76.0540   -1.9198 O.3     1  UNL1       -0.3258
     30 O          28.0882   75.0962   -5.9132 O.3     1  UNL1       -0.3794
     31 O          29.7794   73.8380   -3.9626 O.3     1  UNL1       -0.3794
     32 O          25.4664   75.7092   -4.8504 O.3     1  UNL1       -0.3775
     33 C          27.7053   74.8722   -4.5536 C.3     1  UNL1        0.1715
     34 C          28.9581   74.9677   -3.6806 C.3     1  UNL1        0.1694
     35 C          26.6818   75.9291   -4.1427 C.3     1  UNL1        0.1967
     36 C          28.5933   75.0045   -2.1904 C.3     1  UNL1        0.1761
     37 C          26.4275   75.9128   -2.6343 C.3     1  UNL1        0.2704
     38 H          28.7376   74.4281   -6.1805 H       1  UNL1        0.2105
     39 H          30.0021   73.8263   -4.9068 H       1  UNL1        0.2105
     40 H          25.6407   75.7221   -5.8040 H       1  UNL1        0.2106
     41 O          30.8387   75.8173   -2.1100 O.3     1  UNL1       -0.3794
     42 C          29.8143   75.2578   -1.3088 C.3     1  UNL1        0.1693
     43 H          31.6221   75.9842   -1.5621 H       1  UNL1        0.2105
@<TRIPOS>UNITY_ATOM_ATTR
2 1
charge -1
26 1
charge -1
@<TRIPOS>BOND
     1    25    28    1
     2    25    24    1
     3    25    26    1
     4    25    27    2
     5     1     4    1
     6     1    24    1
     7     1     2    1
     8     1     3    2
     9     6    11    1
    10     6    12    1
    11    29    36    1
    12    29    37    1
    13     7     9    1
    14     7    13    1
    15     8    10    1
    16     8    14    1
    17    28    37    1
    18     4     5    1
    19    30    33    1
    20    30    38    1
    21    31    34    1
    22    31    39    1
    23    32    35    1
    24    32    40    1
    25    41    42    1
    26    41    43    1
    27    15    19    2
    28    16    22    2
    29    17    12    1
    30    17    19   ar
    31    17    20   ar
    32    18    19   ar
    33    18    22   ar
    34    18    23    1
    35     9    10    1
    36     9    11    1
    37    10    12    1
    38    11     5    1
    39    33    34    1
    40    33    35    1
    41    34    36    1
    42    35    37    1
    43    36    42    1
    44    20    21   ar
    45    21    22   ar
@<TRIPOS>MOLECULE
*****
 43 45 0 0 0
SMALL
GASTEIGER

@<TRIPOS>ATOM
      1 P          22.7895   71.7244   -2.5231 P.3     1  UNL1        0.2189
      2 O          23.3838   73.2270   -2.6024 O.co2   1  UNL1       -0.4371
      3 O          23.4917   70.7187   -3.3873 O.2     1  UNL1       -0.5170
      4 O          21.2088   71.9163   -2.8108 O.3     1  UNL1       -0.3112
      5 C          20.6290   71.2135   -3.8960 C.3     1  UNL1        0.1811
      6 O          18.4503   72.2254   -3.9517 O.3     1  UNL1       -0.3308
      7 O          17.3571   69.4374   -3.8014 O.3     1  UNL1       -0.3794
      8 O          17.1042   70.0330   -6.4505 O.3     1  UNL1       -0.3779
      9 C          18.5191   69.9156   -4.4768 C.3     1  UNL1        0.1713
     10 C          18.1253   70.6832   -5.7216 C.3     1  UNL1        0.1895
     11 C          19.1468   71.0052   -3.6166 C.3     1  UNL1        0.1764
     12 C          17.6739   72.0130   -5.1420 C.3     1  UNL1        0.2383
     13 H          16.9391   68.7402   -4.3316 H       1  UNL1        0.2105
     14 H          17.4402   69.1924   -6.7986 H       1  UNL1        0.2106
     15 O          15.8818   72.7852   -7.1841 O.2     1  UNL1       -0.2464
     16 O          18.6290   76.2259   -8.5463 O.2     1  UNL1       -0.2670
     17 N          17.8955   73.1073   -6.0447 N.ar    1  UNL1       -0.2551
     18 N          17.2511   74.4979   -7.8606 N.ar    1  UNL1       -0.2743
     19 C          16.9332   73.4115   -7.0356 C.ar    1  UNL1        0.3323
     20 C          19.0565   73.8660   -5.9422 C.ar    1  UNL1        0.0869
     21 C          19.3453   74.8981   -6.7375 C.ar    1  UNL1        0.0795
     22 C          18.3922   75.2819   -7.7989 C.ar    1  UNL1        0.2626
     23 H          16.5955   74.7280   -8.5584 H       1  UNL1        0.1734
     24 O          22.8338   71.3990   -0.9404 O.3     1  UNL1       -0.2703
     25 P          21.9395   70.4011   -0.0363 P.3     1  UNL1        0.2208
     26 O          23.0379   69.4128    0.6226 O.co2   1  UNL1       -0.4371
     27 O          20.8481   69.6987   -0.7910 O.2     1  UNL1       -0.5170
     28 O          21.4237   71.3135    1.1910 O.3     1  UNL1       -0.2858
     29 O          21.9540   73.5593    0.6507 O.3     1  UNL1       -0.3258
     30 O          20.3348   74.1482    4.4034 O.3     1  UNL1       -0.3794
     31 O          18.8562   74.9575    2.0781 O.3     1  UNL1       -0.3794
     32 O          21.9872   71.8271    3.8917 O.3     1  UNL1       -0.3775
     33 C          20.4621   73.5251    3.1223 C.3     1  UNL1        0.1715
     34 C          20.2322   74.5887    2.0468 C.3     1  UNL1        0.1694
     35 C          21.8615   72.9259    2.9955 C.3     1  UNL1        0.1967
     36 C          20.6127   74.0620    0.6566 C.3     1  UNL1        0.1761
     37 C          22.1564   72.4781    1.5628 C.3     1  UNL1        0.2704
     38 H          19.4483   74.5302    4.4905 H       1  UNL1        0.2105
     39 H          18.6287   75.2878    2.9615 H       1  UNL1        0.2105
     40 H          21.7984   72.1237    4.7952 H       1  UNL1        0.2106
     41 O          20.5993   76.4139    0.2356 O.3     1  UNL1       -0.3794
     42 C          20.5411   75.1544   -0.4082 C.3     1  UNL1        0.1693
     43 H          20.5551   77.1188   -0.4299 H       1  UNL1        0.2105
@<TRIPOS>UNITY_ATOM_ATTR
2 1
charge -1
26 1
charge -1
@<TRIPOS>BOND
     1    25    28    1
     2    25    24    1
     3    25    26    1
     4    25    27    2
     5     1     4    1
     6     1    24    1
     7     1     2    1
     8     1     3    2
     9     6    11    1
    10     6    12    1
    11    29    36    1
    12    29    37    1
    13     7     9    1
    14     7    13    1
    15     8    10    1
    16     8    14    1
    17    28    37    1
    18     4     5    1
    19    30    33    1
    20    30    38    1
    21    31    34    1
    22    31    39    1
    23    32    35    1
    24    32    40    1
    25    41    42    1
    26    41    43    1
    27    15    19    2
    28    16    22    2
    29    17    12    1
    30    17    19   ar
    31    17    20   ar
    32    18    19   ar
    33    18    22   ar
    34    18    23    1
    35     9    10    1
    36     9    11    1
    37    10    12    1
    38    11     5    1
    39    33    34    1
    40    33    35    1
    41    34    36    1
    42    35    37    1
    43    36    42    1
    44    20    21   ar
    45    21    22   ar
@<TRIPOS>MOLECULE
*****
 43 45 0 0 0
SMALL
GASTEIGER

@<TRIPOS>ATOM
      1 P          22.7662   71.9061   -2.3917 P.3     1  UNL1        0.2189
      2 O          23.2124   73.2529   -1.6143 O.co2   1  UNL1       -0.4371
      3 O          23.4704   71.6633   -3.6942 O.2     1  UNL1       -0.5170
      4 O          21.1545   72.0217   -2.4752 O.3     1  UNL1       -0.3112
      5 C          20.4626   71.1826   -3.3835 C.3     1  UNL1        0.1811
      6 O          18.1992   71.4507   -2.6227 O.3     1  UNL1       -0.3308
      7 O          18.1164   68.4613   -2.4042 O.3     1  UNL1       -0.3794
      8 O          16.8072   68.9221   -4.7515 O.3     1  UNL1       -0.3779
      9 C          18.7764   69.2774   -3.3705 C.3     1  UNL1        0.1713
     10 C          17.7696   69.8691   -4.3347 C.3     1  UNL1        0.1895
     11 C          19.3011   70.5175   -2.6577 C.3     1  UNL1        0.1764
     12 C          17.1653   70.9923   -3.5092 C.3     1  UNL1        0.2383
     13 H          17.7730   67.6628   -2.8359 H       1  UNL1        0.2105
     14 H          17.2406   68.2284   -5.2728 H       1  UNL1        0.2106
     15 O          14.6732   72.2900   -3.2211 O.2     1  UNL1       -0.2464
     16 O          15.5819   75.1998   -6.6777 O.2     1  UNL1       -0.2670
     17 N          16.7249   72.0922   -4.3202 N.ar    1  UNL1       -0.2551
     18 N          15.1278   73.7379   -4.9423 N.ar    1  UNL1       -0.2743
     19 C          15.4549   72.6722   -4.0943 C.ar    1  UNL1        0.3323
     20 C          17.5490   72.5850   -5.3262 C.ar    1  UNL1        0.0869
     21 C          17.2217   73.6012   -6.1271 C.ar    1  UNL1        0.0795
     22 C          15.9121   74.2630   -5.9572 C.ar    1  UNL1        0.2626
     23 H          14.2476   74.1574   -4.8037 H       1  UNL1        0.1734
     24 O          22.9906   70.7537   -1.2806 O.3     1  UNL1       -0.2703
     25 P          22.4276   70.6094    0.2278 P.3     1  UNL1        0.2208
     26 O          23.7595   70.3014    1.0931 O.co2   1  UNL1       -0.4371
     27 O          21.3384   69.5880    0.3830 O.2     1  UNL1       -0.5170
     28 O          22.0042   72.1083    0.6510 O.3     1  UNL1       -0.2858
     29 O          22.8789   74.1436    1.4931 O.3     1  UNL1       -0.3258
     30 O          20.1548   73.3092    4.4821 O.3     1  UNL1       -0.3794
     31 O          19.6167   75.4335    2.6258 O.3     1  UNL1       -0.3794
     32 O          21.6737   71.1624    3.2722 O.3     1  UNL1       -0.3775
     33 C          20.6486   73.3380    3.1402 C.3     1  UNL1        0.1715
     34 C          20.8859   74.7976    2.7477 C.3     1  UNL1        0.1694
     35 C          21.9517   72.5439    3.0707 C.3     1  UNL1        0.1967
     36 C          21.6624   74.8971    1.4278 C.3     1  UNL1        0.1761
     37 C          22.6689   72.7511    1.7355 C.3     1  UNL1        0.2704
     38 H          19.3272   73.8112    4.5330 H       1  UNL1        0.2105
     39 H          19.1364   75.3631    3.4658 H       1  UNL1        0.2105
     40 H          21.2199   71.0444    4.1208 H       1  UNL1        0.2106
     41 O          23.4132   76.3642    0.7267 O.3     1  UNL1       -0.3794
     42 C          22.0472   76.3376    1.0978 C.3     1  UNL1        0.1693
     43 H          23.6721   77.2748    0.5136 H       1  UNL1        0.2105
@<TRIPOS>UNITY_ATOM_ATTR
2 1
charge -1
26 1
charge -1
@<TRIPOS>BOND
     1    25    28    1
     2    25    24    1
     3    25    26    1
     4    25    27    2
     5     1     4    1
     6     1    24    1
     7     1     2    1
     8     1     3    2
     9     6    11    1
    10     6    12    1
    11    29    36    1
    12    29    37    1
    13     7     9    1
    14     7    13    1
    15     8    10    1
    16     8    14    1
    17    28    37    1
    18     4     5    1
    19    30    33    1
    20    30    38    1
    21    31    34    1
    22    31    39    1
    23    32    35    1
    24    32    40    1
    25    41    42    1
    26    41    43    1
    27    15    19    2
    28    16    22    2
    29    17    12    1
    30    17    19   ar
    31    17    20   ar
    32    18    19   ar
    33    18    22   ar
    34    18    23    1
    35     9    10    1
    36     9    11    1
    37    10    12    1
    38    11     5    1
    39    33    34    1
    40    33    35    1
    41    34    36    1
    42    35    37    1
    43    36    42    1
    44    20    21   ar
    45    21    22   ar
@<TRIPOS>MOLECULE
*****
 43 45 0 0 0
SMALL
GASTEIGER

@<TRIPOS>ATOM
      1 P          21.3741   74.7054   -4.7321 P.3     1  UNL1        0.2189
      2 O          21.2681   76.3194   -4.6990 O.co2   1  UNL1       -0.4371
      3 O          22.0472   74.1392   -5.9477 O.2     1  UNL1       -0.5170
      4 O          19.8549   74.2111   -4.4757 O.3     1  UNL1       -0.3112
      5 C          19.6345   73.1471   -3.5661 C.3     1  UNL1        0.1811
      6 O          17.6105   72.9126   -4.8397 O.3     1  UNL1       -0.3308
      7 O          16.4997   71.4705   -2.4571 O.3     1  UNL1       -0.3794
      8 O          17.1520   69.4253   -4.1389 O.3     1  UNL1       -0.3779
      9 C          17.8256   71.4556   -2.9833 C.3     1  UNL1        0.1713
     10 C          17.8782   70.6321   -4.2532 C.3     1  UNL1        0.1895
     11 C          18.1420   72.8543   -3.4979 C.3     1  UNL1        0.1764
     12 C          17.2738   71.5840   -5.2713 C.3     1  UNL1        0.2383
     13 H          16.2750   70.5878   -2.1220 H       1  UNL1        0.2105
     14 H          17.5758   68.8539   -3.4797 H       1  UNL1        0.2106
     15 O          15.9830   70.0725   -7.2780 O.2     1  UNL1       -0.2464
     16 O          19.3710   70.8545  -10.3030 O.2     1  UNL1       -0.2670
     17 N          17.7959   71.3765   -6.5925 N.ar    1  UNL1       -0.2551
     18 N          17.6709   70.4632   -8.7827 N.ar    1  UNL1       -0.2743
     19 C          17.0693   70.6001   -7.5252 C.ar    1  UNL1        0.3323
     20 C          19.0153   71.9401   -6.9522 C.ar    1  UNL1        0.0869
     21 C          19.5759   71.7991   -8.1552 C.ar    1  UNL1        0.0795
     22 C          18.8815   71.0028   -9.1876 C.ar    1  UNL1        0.2626
     23 H          17.1831   69.9262   -9.4485 H       1  UNL1        0.1734
     24 O          22.1091   74.3607   -3.3342 O.3     1  UNL1       -0.2703
     25 P          23.3814   73.4185   -3.0080 P.3     1  UNL1        0.2208
     26 O          24.6433   74.4006   -3.2542 O.co2   1  UNL1       -0.4371
     27 O          23.4237   72.1450   -3.8019 O.2     1  UNL1       -0.5170
     28 O          23.3345   73.2083   -1.4084 O.3     1  UNL1       -0.2858
     29 O          21.2787   72.0308   -1.3474 O.3     1  UNL1       -0.3258
     30 O          22.6560   71.1507    2.4447 O.3     1  UNL1       -0.3794
     31 O          22.6530   69.1066    0.4273 O.3     1  UNL1       -0.3794
     32 O          23.0884   73.7856    1.3268 O.3     1  UNL1       -0.3775
     33 C          22.7745   71.4144    1.0440 C.3     1  UNL1        0.1715
     34 C          21.9752   70.3521    0.2867 C.3     1  UNL1        0.1694
     35 C          22.2268   72.8099    0.7507 C.3     1  UNL1        0.1967
     36 C          21.8330   70.7186   -1.1967 C.3     1  UNL1        0.1761
     37 C          22.0788   73.0542   -0.7521 C.3     1  UNL1        0.2704
     38 H          23.0025   70.2663    2.6377 H       1  UNL1        0.2105
     39 H          22.7367   68.8870    1.3686 H       1  UNL1        0.2105
     40 H          23.1736   73.6202    2.2782 H       1  UNL1        0.2106
     41 O          21.4451   69.5180   -3.2257 O.3     1  UNL1       -0.3794
     42 C          20.9079   69.7557   -1.9376 C.3     1  UNL1        0.1693
     43 H          20.8668   68.9064   -3.7087 H       1  UNL1        0.2105
@<TRIPOS>UNITY_ATOM_ATTR
2 1
charge -1
26 1
charge -1
@<TRIPOS>BOND
     1    25    28    1
     2    25    24    1
     3    25    26    1
     4    25    27    2
     5     1     4    1
     6     1    24    1
     7     1     2    1
     8     1     3    2
     9     6    11    1
    10     6    12    1
    11    29    36    1
    12    29    37    1
    13     7     9    1
    14     7    13    1
    15     8    10    1
    16     8    14    1
    17    28    37    1
    18     4     5    1
    19    30    33    1
    20    30    38    1
    21    31    34    1
    22    31    39    1
    23    32    35    1
    24    32    40    1
    25    41    42    1
    26    41    43    1
    27    15    19    2
    28    16    22    2
    29    17    12    1
    30    17    19   ar
    31    17    20   ar
    32    18    19   ar
    33    18    22   ar
    34    18    23    1
    35     9    10    1
    36     9    11    1
    37    10    12    1
    38    11     5    1
    39    33    34    1
    40    33    35    1
    41    34    36    1
    42    35    37    1
    43    36    42    1
    44    20    21   ar
    45    21    22   ar
@<TRIPOS>MOLECULE
*****
 43 45 0 0 0
SMALL
GASTEIGER

@<TRIPOS>ATOM
      1 P          21.6560   72.7947   -4.8681 P.3     1  UNL1        0.2189
      2 O          21.0545   73.9583   -3.9186 O.co2   1  UNL1       -0.4371
      3 O          23.1311   72.8873   -5.1270 O.2     1  UNL1       -0.5170
      4 O          20.7087   72.8346   -6.1791 O.3     1  UNL1       -0.3112
      5 C          21.2955   72.5882   -7.4451 C.3     1  UNL1        0.1811
      6 O          19.1795   71.4504   -7.4907 O.3     1  UNL1       -0.3308
      7 O          19.7025   70.9885  -10.4069 O.3     1  UNL1       -0.3794
      8 O          17.9604   73.0863  -10.4404 O.3     1  UNL1       -0.3779
      9 C          20.0270   72.1196   -9.6002 C.3     1  UNL1        0.1713
     10 C          18.7811   72.9270   -9.3012 C.3     1  UNL1        0.1895
     11 C          20.4173   71.6131   -8.2172 C.3     1  UNL1        0.1764
     12 C          18.1194   72.0951   -8.2157 C.3     1  UNL1        0.2383
     13 H          19.4503   71.2869  -11.2953 H       1  UNL1        0.2105
     14 H          18.4253   73.6222  -11.1016 H       1  UNL1        0.2106
     15 O          16.0204   71.1070   -6.6045 O.2     1  UNL1       -0.2464
     16 O          15.2390   75.2568   -4.7580 O.2     1  UNL1       -0.2670
     17 N          17.3507   72.8951   -7.3044 N.ar    1  UNL1       -0.2551
     18 N          15.6331   73.1741   -5.6863 N.ar    1  UNL1       -0.2743
     19 C          16.3175   72.3018   -6.5423 C.ar    1  UNL1        0.3323
     20 C          17.6245   74.2523   -7.1732 C.ar    1  UNL1        0.0869
     21 C          16.9618   75.0706   -6.3533 C.ar    1  UNL1        0.0795
     22 C          15.8672   74.5301   -5.5216 C.ar    1  UNL1        0.2626
     23 H          14.9089   72.7830   -5.1457 H       1  UNL1        0.1734
     24 O          21.1877   71.4390   -4.1226 O.3     1  UNL1       -0.2703
     25 P          21.8164   70.6508   -2.8590 P.3     1  UNL1        0.2208
     26 O          23.3944   70.5858   -3.2100 O.co2   1  UNL1       -0.4371
     27 O          21.1859   69.3149   -2.5914 O.2     1  UNL1       -0.5170
     28 O          21.7141   71.6962   -1.6336 O.3     1  UNL1       -0.2858
     29 O          23.3009   73.0055   -0.4569 O.3     1  UNL1       -0.3258
     30 O          21.0323   71.6930    2.7339 O.3     1  UNL1       -0.3794
     31 O          20.8416   74.4314    1.8899 O.3     1  UNL1       -0.3794
     32 O          21.5860   69.9068    0.5243 O.3     1  UNL1       -0.3775
     33 C          21.2634   72.1303    1.3921 C.3     1  UNL1        0.1715
     34 C          21.8583   73.5390    1.4426 C.3     1  UNL1        0.1694
     35 C          22.2295   71.1627    0.7111 C.3     1  UNL1        0.1967
     36 C          22.3794   73.9700    0.0649 C.3     1  UNL1        0.1761
     37 C          22.7251   71.7091   -0.6291 C.3     1  UNL1        0.2704
     38 H          20.4192   72.3028    3.1718 H       1  UNL1        0.2105
     39 H          20.5209   74.1478    2.7605 H       1  UNL1        0.2105
     40 H          21.2772   69.5714    1.3799 H       1  UNL1        0.2106
     41 O          24.3257   75.1193    0.8393 O.3     1  UNL1       -0.3794
     42 C          23.1177   75.3054    0.1249 C.3     1  UNL1        0.1693
     43 H          24.8065   75.9610    0.8852 H       1  UNL1        0.2105
@<TRIPOS>UNITY_ATOM_ATTR
2 1
charge -1
26 1
charge -1
@<TRIPOS>BOND
     1    25    28    1
     2    25    24    1
     3    25    26    1
     4    25    27    2
     5     1     4    1
     6     1    24    1
     7     1     2    1
     8     1     3    2
     9     6    11    1
    10     6    12    1
    11    29    36    1
    12    29    37    1
    13     7     9    1
    14     7    13    1
    15     8    10    1
    16     8    14    1
    17    28    37    1
    18     4     5    1
    19    30    33    1
    20    30    38    1
    21    31    34    1
    22    31    39    1
    23    32    35    1
    24    32    40    1
    25    41    42    1
    26    41    43    1
    27    15    19    2
    28    16    22    2
    29    17    12    1
    30    17    19   ar
    31    17    20   ar
    32    18    19   ar
    33    18    22   ar
    34    18    23    1
    35     9    10    1
    36     9    11    1
    37    10    12    1
    38    11     5    1
    39    33    34    1
    40    33    35    1
    41    34    36    1
    42    35    37    1
    43    36    42    1
    44    20    21   ar
    45    21    22   ar
@<TRIPOS>MOLECULE
*****
 43 45 0 0 0
SMALL
GASTEIGER

@<TRIPOS>ATOM
      1 P          19.5023   69.9787   -4.0597 P.3     1  UNL1        0.2189
      2 O          18.9048   68.4921   -3.8353 O.co2   1  UNL1       -0.4371
      3 O          18.6659   71.0896   -3.4960 O.2     1  UNL1       -0.5170
      4 O          19.7827   70.0485   -5.6517 O.3     1  UNL1       -0.3112
      5 C          19.3943   71.2150   -6.3561 C.3     1  UNL1        0.1811
      6 O          17.2310   70.9929   -7.3783 O.3     1  UNL1       -0.3308
      7 O          18.6847   70.9164   -9.9997 O.3     1  UNL1       -0.3794
      8 O          17.7727   73.4845   -9.9005 O.3     1  UNL1       -0.3779
      9 C          18.9816   71.6697   -8.8251 C.3     1  UNL1        0.1713
     10 C          18.0057   72.8182   -8.6764 C.3     1  UNL1        0.1895
     11 C          18.6435   70.8064   -7.6161 C.3     1  UNL1        0.1764
     12 C          16.7673   72.1132   -8.1495 C.3     1  UNL1        0.2383
     13 H          18.8928   71.4470  -10.7852 H       1  UNL1        0.2105
     14 H          18.5898   73.9169  -10.1940 H       1  UNL1        0.2106
     15 O          14.8428   73.9498   -9.0988 O.2     1  UNL1       -0.2464
     16 O          13.7716   75.3147   -4.8291 O.2     1  UNL1       -0.2670
     17 N          15.9708   72.9610   -7.3080 N.ar    1  UNL1       -0.2551
     18 N          14.3109   74.6278   -6.9721 N.ar    1  UNL1       -0.2743
     19 C          15.0333   73.8490   -7.8851 C.ar    1  UNL1        0.3323
     20 C          16.1230   72.9065   -5.9268 C.ar    1  UNL1        0.0869
     21 C          15.4273   73.6569   -5.0699 C.ar    1  UNL1        0.0795
     22 C          14.4271   74.6108   -5.5912 C.ar    1  UNL1        0.2626
     23 H          13.6522   75.2540   -7.3512 H       1  UNL1        0.1734
     24 O          20.9886   69.8714   -3.4334 O.3     1  UNL1       -0.2703
     25 P          22.0463   71.0171   -3.0074 P.3     1  UNL1        0.2208
     26 O          21.5660   72.3026   -3.8642 O.co2   1  UNL1       -0.4371
     27 O          23.4835   70.6360   -3.2155 O.2     1  UNL1       -0.5170
     28 O          21.6645   71.3786   -1.4814 O.3     1  UNL1       -0.2858
     29 O          23.2222   72.8535   -0.4742 O.3     1  UNL1       -0.3258
     30 O          21.0846   71.7574    2.8844 O.3     1  UNL1       -0.3794
     31 O          20.7607   74.3953    1.7959 O.3     1  UNL1       -0.3794
     32 O          21.6609   69.7954    0.8356 O.3     1  UNL1       -0.3775
     33 C          21.2662   72.0760    1.5020 C.3     1  UNL1        0.1715
     34 C          21.8030   73.5055    1.4059 C.3     1  UNL1        0.1694
     35 C          22.2558   71.0876    0.8879 C.3     1  UNL1        0.1967
     36 C          22.2737   73.8257   -0.0193 C.3     1  UNL1        0.1761
     37 C          22.6970   71.5251   -0.5100 C.3     1  UNL1        0.2704
     38 H          20.4570   72.3811    3.2802 H       1  UNL1        0.2105
     39 H          20.4723   74.1820    2.6973 H       1  UNL1        0.2105
     40 H          21.3862   69.5297    1.7266 H       1  UNL1        0.2106
     41 O          24.1190   75.1596    0.7052 O.3     1  UNL1       -0.3794
     42 C          22.9570   75.1889   -0.1031 C.3     1  UNL1        0.1693
     43 H          24.5644   76.0206    0.6613 H       1  UNL1        0.2105
@<TRIPOS>UNITY_ATOM_ATTR
2 1
charge -1
26 1
charge -1
@<TRIPOS>BOND
     1    25    28    1
     2    25    24    1
     3    25    26    1
     4    25    27    2
     5     1     4    1
     6     1    24    1
     7     1     2    1
     8     1     3    2
     9     6    11    1
    10     6    12    1
    11    29    36    1
    12    29    37    1
    13     7     9    1
    14     7    13    1
    15     8    10    1
    16     8    14    1
    17    28    37    1
    18     4     5    1
    19    30    33    1
    20    30    38    1
    21    31    34    1
    22    31    39    1
    23    32    35    1
    24    32    40    1
    25    41    42    1
    26    41    43    1
    27    15    19    2
    28    16    22    2
    29    17    12    1
    30    17    19   ar
    31    17    20   ar
    32    18    19   ar
    33    18    22   ar
    34    18    23    1
    35     9    10    1
    36     9    11    1
    37    10    12    1
    38    11     5    1
    39    33    34    1
    40    33    35    1
    41    34    36    1
    42    35    37    1
    43    36    42    1
    44    20    21   ar
    45    21    22   ar
@<TRIPOS>MOLECULE
*****
 43 45 0 0 0
SMALL
GASTEIGER

@<TRIPOS>ATOM
      1 P          20.4440   72.4961   -4.3460 P.3     1  UNL1        0.2189
      2 O          19.1327   73.0365   -3.5677 O.co2   1  UNL1       -0.4371
      3 O          21.6752   73.3358   -4.1721 O.2     1  UNL1       -0.5170
      4 O          19.9374   72.2990   -5.8700 O.3     1  UNL1       -0.3112
      5 C          18.6158   71.8372   -6.0888 C.3     1  UNL1        0.1811
      6 O          18.7194   74.0228   -7.0819 O.3     1  UNL1       -0.3308
      7 O          16.2492   73.2476   -8.5945 O.3     1  UNL1       -0.3794
      8 O          18.2158   72.9054  -10.4525 O.3     1  UNL1       -0.3779
      9 C          17.3676   72.4445   -8.2210 C.3     1  UNL1        0.1713
     10 C          18.5641   72.7728   -9.0894 C.3     1  UNL1        0.1895
     11 C          17.8369   72.9039   -6.8462 C.3     1  UNL1        0.1764
     12 C          19.0473   74.0779   -8.4799 C.3     1  UNL1        0.2383
     13 H          15.9316   72.9725   -9.4694 H       1  UNL1        0.2105
     14 H          17.9149   72.0490  -10.7943 H       1  UNL1        0.2106
     15 O          20.8685   71.9953   -9.0491 O.2     1  UNL1       -0.2464
     16 O          24.4647   74.8772   -8.9923 O.2     1  UNL1       -0.2670
     17 N          20.4651   74.2558   -8.6197 N.ar    1  UNL1       -0.2551
     18 N          22.6576   73.4320   -9.0205 N.ar    1  UNL1       -0.2743
     19 C          21.2917   73.1441   -8.9051 C.ar    1  UNL1        0.3323
     20 C          21.0223   75.5216   -8.4743 C.ar    1  UNL1        0.0869
     21 C          22.3271   75.7792   -8.5862 C.ar    1  UNL1        0.0795
     22 C          23.2596   74.6728   -8.8834 C.ar    1  UNL1        0.2626
     23 H          23.2528   72.6729   -9.2187 H       1  UNL1        0.1734
     24 O          20.5843   70.9773   -3.8105 O.3     1  UNL1       -0.2703
     25 P          20.0724   70.2820   -2.4440 P.3     1  UNL1        0.2208
     26 O          20.9267   68.9094   -2.3835 O.co2   1  UNL1       -0.4371
     27 O          18.5853   70.0895   -2.3712 O.2     1  UNL1       -0.5170
     28 O          20.6869   71.1970   -1.2650 O.3     1  UNL1       -0.2858
     29 O          22.7054   72.4389   -1.2492 O.3     1  UNL1       -0.3258
     30 O          22.5984   71.3029    2.7194 O.3     1  UNL1       -0.3794
     31 O          22.0586   74.0333    2.0110 O.3     1  UNL1       -0.3794
     32 O          21.7412   69.4531    0.6644 O.3     1  UNL1       -0.3775
     33 C          22.0441   71.7049    1.4638 C.3     1  UNL1        0.1715
     34 C          22.6115   73.0803    1.1074 C.3     1  UNL1        0.1694
     35 C          22.4205   70.6758    0.3995 C.3     1  UNL1        0.1967
     36 C          22.2755   73.4599   -0.3411 C.3     1  UNL1        0.1761
     37 C          22.0887   71.1724   -1.0088 C.3     1  UNL1        0.2704
     38 H          22.3627   71.9519    3.3996 H       1  UNL1        0.2105
     39 H          22.2776   73.7818    2.9220 H       1  UNL1        0.2105
     40 H          21.9598   69.1491    1.5586 H       1  UNL1        0.2106
     41 O          24.1351   74.9183    0.0108 O.3     1  UNL1       -0.3794
     42 C          22.9639   74.7547   -0.7675 C.3     1  UNL1        0.1693
     43 H          24.5838   75.7383   -0.2498 H       1  UNL1        0.2105
@<TRIPOS>UNITY_ATOM_ATTR
2 1
charge -1
26 1
charge -1
@<TRIPOS>BOND
     1    25    28    1
     2    25    24    1
     3    25    26    1
     4    25    27    2
     5     1     4    1
     6     1    24    1
     7     1     2    1
     8     1     3    2
     9     6    11    1
    10     6    12    1
    11    29    36    1
    12    29    37    1
    13     7     9    1
    14     7    13    1
    15     8    10    1
    16     8    14    1
    17    28    37    1
    18     4     5    1
    19    30    33    1
    20    30    38    1
    21    31    34    1
    22    31    39    1
    23    32    35    1
    24    32    40    1
    25    41    42    1
    26    41    43    1
    27    15    19    2
    28    16    22    2
    29    17    12    1
    30    17    19   ar
    31    17    20   ar
    32    18    19   ar
    33    18    22   ar
    34    18    23    1
    35     9    10    1
    36     9    11    1
    37    10    12    1
    38    11     5    1
    39    33    34    1
    40    33    35    1
    41    34    36    1
    42    35    37    1
    43    36    42    1
    44    20    21   ar
    45    21    22   ar
