@<TRIPOS>MOLECULE
UDP-glaA
 43 45 0 0 0
SMALL
GASTEIGER

@<TRIPOS>ATOM
      1 P          22.8355   71.8413   -2.5165 P.3     1  UNL1        0.2189
      2 O          23.0954   73.3180   -1.9088 O.3     1  UNL1       -0.4371
      3 O          23.9855   71.2628   -3.2877 O.2     1  UNL1       -0.5170
      4 O          21.4478   71.9946   -3.3329 O.3     1  UNL1       -0.3112
      5 C          20.7037   70.8252   -3.6295 C.3     1  UNL1        0.1811
      6 O          18.6910   71.6962   -4.6119 O.3     1  UNL1       -0.3308
      7 O          17.2225   70.2301   -2.4474 O.3     1  UNL1       -0.3794
      8 O          16.9130   68.5826   -4.5981 O.3     1  UNL1       -0.3779
      9 C          18.4028   69.8506   -3.1548 C.3     1  UNL1        0.1713
     10 C          18.0542   69.4144   -4.5622 C.3     1  UNL1        0.1895
     11 C          19.2250   71.1079   -3.4052 C.3     1  UNL1        0.1764
     12 C          17.8288   70.7456   -5.2586 C.3     1  UNL1        0.2383
     13 H          17.4984   70.5381   -1.5673 H       1  UNL1        0.2105
     14 H          17.0987   67.8066   -4.0419 H       1  UNL1        0.2106
     15 O          16.0117   70.0164   -7.2938 O.2     1  UNL1       -0.2464
     16 O          19.1866   70.5859  -10.5853 O.2     1  UNL1       -0.2670
     17 N          18.1535   70.6953   -6.6556 N.ar    1  UNL1       -0.2551
     18 N          17.5940   70.3000   -8.9314 N.ar    1  UNL1       -0.2743
     19 C          17.1682   70.3156   -7.5967 C.ar    1  UNL1        0.3323
     20 C          19.4368   71.0200   -7.0811 C.ar    1  UNL1        0.0869
     21 C          19.8272   71.0007   -8.3574 C.ar    1  UNL1        0.0795
     22 C          18.8592   70.6143   -9.4030 C.ar    1  UNL1        0.2626
     23 H          16.9025   70.0294   -9.6254 H       1  UNL1        0.1734
     24 O          22.3987   70.9859   -1.2155 O.3     1  UNL1       -0.2703
     25 P          21.5603   71.4099    0.0998 P.3     1  UNL1        0.2208
     26 O          21.4101   70.0175    0.9090 O.3     1  UNL1       -0.4371
     27 O          20.2588   72.0991   -0.1951 O.2     1  UNL1       -0.5170
     28 O          22.5932   72.2839    0.9790 O.3     1  UNL1       -0.2858
     29 O          24.2597   72.1976    2.6568 O.3     1  UNL1       -0.3226
     30 O          21.3584   74.5865    4.4330 O.3     1  UNL1       -0.3794
     31 O          20.5972   72.2342    2.8859 O.3     1  UNL1       -0.3775
     32 O          23.9518   73.8244    5.0014 O.3     1  UNL1       -0.3792
     33 C          22.1584   74.0257    3.3958 C.3     1  UNL1        0.1718
     34 C          21.9296   72.5133    3.3029 C.3     1  UNL1        0.1968
     35 C          23.6318   74.3152    3.6955 C.3     1  UNL1        0.1723
     36 C          22.9089   71.8758    2.3094 C.3     1  UNL1        0.2706
     37 C          24.5133   73.6016    2.6728 C.3     1  UNL1        0.1830
     38 H          21.5369   75.5421    4.4570 H       1  UNL1        0.2105
     39 H          20.5028   71.2683    2.8325 H       1  UNL1        0.2106
     40 H          24.0022   72.8543    4.9631 H       1  UNL1        0.2106
     41 O          26.2300   75.0050    3.4390 O.co2   1  UNL1       -0.5466
     42 O          26.8015   72.8651    2.8994 O.co2   1  UNL1       -0.5466
     43 C          25.9645   73.7501    3.0029 C.2     1  UNL1        0.0799
@<TRIPOS>UNITY_ATOM_ATTR
41 1
charge -1
@<TRIPOS>BOND
     1     1     4    1
     2     1    24    1
     3     1     2    1
     4     1     3    2
     5    25    28    1
     6    25    24    1
     7    25    26    1
     8    25    27    2
     9     6    11    1
    10     6    12    1
    11    29    36    1
    12    29    37    1
    13     7     9    1
    14     7    13    1
    15     8    10    1
    16     8    14    1
    17     4     5    1
    18    28    36    1
    19    30    33    1
    20    30    38    1
    21    31    34    1
    22    31    39    1
    23    32    35    1
    24    32    40    1
    25    41    43   ar
    26    15    19    2
    27    42    43   ar
    28    16    22    2
    29    17    12    1
    30    17    19   ar
    31    17    20   ar
    32    18    19   ar
    33    18    22   ar
    34    18    23    1
    35     9    10    1
    36     9    11    1
    37    10    12    1
    38    11     5    1
    39    33    34    1
    40    33    35    1
    41    34    36    1
    42    35    37    1
    43    37    43    1
    44    20    21   ar
    45    21    22   ar
@<TRIPOS>MOLECULE
UDP-glaA
 43 45 0 0 0
SMALL
GASTEIGER

@<TRIPOS>ATOM
      1 P          22.0996   71.9533   -3.1337 P.3     1  UNL1        0.2189
      2 O          21.4274   73.3967   -2.8468 O.3     1  UNL1       -0.4371
      3 O          23.5425   71.9973   -3.5437 O.2     1  UNL1       -0.5170
      4 O          21.0903   71.2559   -4.1875 O.3     1  UNL1       -0.3112
      5 C          20.2051   70.2541   -3.7163 C.3     1  UNL1        0.1811
      6 O          18.5159   71.5447   -4.8365 O.3     1  UNL1       -0.3308
      7 O          16.5851   70.3929   -2.8524 O.3     1  UNL1       -0.3794
      8 O          16.1308   68.8781   -5.0738 O.3     1  UNL1       -0.3779
      9 C          17.7181   69.7820   -3.4695 C.3     1  UNL1        0.1713
     10 C          17.4131   69.4489   -4.9147 C.3     1  UNL1        0.1895
     11 C          18.8046   70.8402   -3.6087 C.3     1  UNL1        0.1764
     12 C          17.5349   70.8072   -5.5842 C.3     1  UNL1        0.2383
     13 H          16.8396   70.6234   -1.9427 H       1  UNL1        0.2105
     14 H          16.0992   68.0728   -4.5293 H       1  UNL1        0.2106
     15 O          15.8162   70.2969   -7.7662 O.2     1  UNL1       -0.2464
     16 O          19.2990   70.4482  -10.7806 O.2     1  UNL1       -0.2670
     17 N          17.9654   70.7086   -6.9496 N.ar    1  UNL1       -0.2551
     18 N          17.5517   70.3721   -9.2658 N.ar    1  UNL1       -0.2743
     19 C          17.0220   70.4485   -7.9709 C.ar    1  UNL1        0.3323
     20 C          19.3100   70.8689   -7.2658 C.ar    1  UNL1        0.0869
     21 C          19.7993   70.7937   -8.5054 C.ar    1  UNL1        0.0795
     22 C          18.8808   70.5241   -9.6293 C.ar    1  UNL1        0.2626
     23 H          16.8918   70.1852  -10.0159 H       1  UNL1        0.1734
     24 O          21.8129   71.1416   -1.7647 O.3     1  UNL1       -0.2703
     25 P          21.0157   71.5697   -0.4253 P.3     1  UNL1        0.2208
     26 O          21.1863   70.2803    0.5362 O.3     1  UNL1       -0.4371
     27 O          19.5911   71.9825   -0.6619 O.2     1  UNL1       -0.5170
     28 O          21.9362   72.7089    0.2520 O.3     1  UNL1       -0.2858
     29 O          23.9699   73.7448   -0.3729 O.3     1  UNL1       -0.3226
     30 O          24.4048   73.3859    3.7455 O.3     1  UNL1       -0.3794
     31 O          23.2281   71.2207    2.1856 O.3     1  UNL1       -0.3775
     32 O          25.7703   74.6183    1.6848 O.3     1  UNL1       -0.3792
     33 C          23.7482   73.5745    2.4950 C.3     1  UNL1        0.1718
     34 C          23.9104   72.3316    1.6134 C.3     1  UNL1        0.1968
     35 C          24.3542   74.7948    1.7966 C.3     1  UNL1        0.1723
     36 C          23.3573   72.5879    0.2061 C.3     1  UNL1        0.2706
     37 C          23.7637   74.9296    0.3947 C.3     1  UNL1        0.1830
     38 H          24.2785   74.1960    4.2683 H       1  UNL1        0.2105
     39 H          23.3507   70.4625    1.5898 H       1  UNL1        0.2106
     40 H          25.9456   73.9572    0.9938 H       1  UNL1        0.2106
     41 O          23.5941   76.5045   -1.3359 O.co2   1  UNL1       -0.5466
     42 O          25.5486   76.4568   -0.1634 O.co2   1  UNL1       -0.5466
     43 C          24.4215   76.0322   -0.3725 C.2     1  UNL1        0.0799
@<TRIPOS>UNITY_ATOM_ATTR
41 1
charge -1
@<TRIPOS>BOND
     1     1     4    1
     2     1    24    1
     3     1     2    1
     4     1     3    2
     5    25    28    1
     6    25    24    1
     7    25    26    1
     8    25    27    2
     9     6    11    1
    10     6    12    1
    11    29    36    1
    12    29    37    1
    13     7     9    1
    14     7    13    1
    15     8    10    1
    16     8    14    1
    17     4     5    1
    18    28    36    1
    19    30    33    1
    20    30    38    1
    21    31    34    1
    22    31    39    1
    23    32    35    1
    24    32    40    1
    25    41    43   ar
    26    15    19    2
    27    42    43   ar
    28    16    22    2
    29    17    12    1
    30    17    19   ar
    31    17    20   ar
    32    18    19   ar
    33    18    22   ar
    34    18    23    1
    35     9    10    1
    36     9    11    1
    37    10    12    1
    38    11     5    1
    39    33    34    1
    40    33    35    1
    41    34    36    1
    42    35    37    1
    43    37    43    1
    44    20    21   ar
    45    21    22   ar
@<TRIPOS>MOLECULE
UDP-glaA
 43 45 0 0 0
SMALL
GASTEIGER

@<TRIPOS>ATOM
      1 P          23.0521   71.6538   -2.4984 P.3     1  UNL1        0.2189
      2 O          23.2934   73.1897   -2.0512 O.3     1  UNL1       -0.4371
      3 O          24.2252   70.9968   -3.1650 O.2     1  UNL1       -0.5170
      4 O          21.6901   71.7107   -3.3687 O.3     1  UNL1       -0.3112
      5 C          21.6113   72.6310   -4.4439 C.3     1  UNL1        0.1811
      6 O          20.8105   70.6555   -5.5531 O.3     1  UNL1       -0.3308
      7 O          21.3723   72.0967   -8.1219 O.3     1  UNL1       -0.3794
      8 O          18.6735   72.3831   -7.8563 O.3     1  UNL1       -0.3779
      9 C          20.8891   72.6148   -6.8826 C.3     1  UNL1        0.1713
     10 C          19.4399   72.2259   -6.6801 C.3     1  UNL1        0.1895
     11 C          21.5821   71.8599   -5.7558 C.3     1  UNL1        0.1764
     12 C          19.5597   70.7735   -6.2510 C.3     1  UNL1        0.2383
     13 H          22.3121   72.3367   -8.1896 H       1  UNL1        0.2105
     14 H          18.7370   73.3160   -8.1245 H       1  UNL1        0.2106
     15 O          17.0397   69.8440   -7.1233 O.2     1  UNL1       -0.2464
     16 O          15.5548   69.2590   -2.7999 O.2     1  UNL1       -0.2670
     17 N          18.4964   70.3711   -5.3753 N.ar    1  UNL1       -0.2551
     18 N          16.3018   69.5538   -4.9698 N.ar    1  UNL1       -0.2743
     19 C          17.2691   69.9203   -5.9149 C.ar    1  UNL1        0.3323
     20 C          18.6751   70.4254   -3.9974 C.ar    1  UNL1        0.0869
     21 C          17.7433   70.0720   -3.1094 C.ar    1  UNL1        0.0795
     22 C          16.4330   69.5909   -3.5903 C.ar    1  UNL1        0.2626
     23 H          15.4112   69.2272   -5.3350 H       1  UNL1        0.1734
     24 O          22.5755   70.9469   -1.1242 O.3     1  UNL1       -0.2703
     25 P          21.4369   71.3654   -0.0560 P.3     1  UNL1        0.2208
     26 O          21.3467   70.0750    0.9150 O.3     1  UNL1       -0.4371
     27 O          20.1292   71.7677   -0.6756 O.2     1  UNL1       -0.5170
     28 O          22.1260   72.5101    0.8488 O.3     1  UNL1       -0.2858
     29 O          24.0870   72.6928    2.1604 O.3     1  UNL1       -0.3226
     30 O          21.2538   74.5548    4.5657 O.3     1  UNL1       -0.3794
     31 O          20.5887   72.1176    3.1084 O.3     1  UNL1       -0.3775
     32 O          23.9971   74.2320    4.5815 O.3     1  UNL1       -0.3792
     33 C          21.9092   74.1411    3.3701 C.3     1  UNL1        0.1718
     34 C          21.9145   72.6122    3.2650 C.3     1  UNL1        0.1968
     35 C          23.3460   74.6701    3.3844 C.3     1  UNL1        0.1723
     36 C          22.7643   72.1525    2.0739 C.3     1  UNL1        0.2706
     37 C          24.1078   74.1193    2.1809 C.3     1  UNL1        0.1830
     38 H          21.2763   75.5266    4.5914 H       1  UNL1        0.2105
     39 H          20.6432   71.1497    3.0369 H       1  UNL1        0.2106
     40 H          24.1953   73.2840    4.4961 H       1  UNL1        0.2106
     41 O          26.3036   73.4925    2.7186 O.co2   1  UNL1       -0.5466
     42 O          26.0011   75.5832    1.8616 O.co2   1  UNL1       -0.5466
     43 C          25.5520   74.5055    2.2240 C.2     1  UNL1        0.0799
@<TRIPOS>UNITY_ATOM_ATTR
41 1
charge -1
@<TRIPOS>BOND
     1     1     4    1
     2     1    24    1
     3     1     2    1
     4     1     3    2
     5    25    28    1
     6    25    24    1
     7    25    26    1
     8    25    27    2
     9     6    11    1
    10     6    12    1
    11    29    36    1
    12    29    37    1
    13     7     9    1
    14     7    13    1
    15     8    10    1
    16     8    14    1
    17     4     5    1
    18    28    36    1
    19    30    33    1
    20    30    38    1
    21    31    34    1
    22    31    39    1
    23    32    35    1
    24    32    40    1
    25    41    43   ar
    26    15    19    2
    27    42    43   ar
    28    16    22    2
    29    17    12    1
    30    17    19   ar
    31    17    20   ar
    32    18    19   ar
    33    18    22   ar
    34    18    23    1
    35     9    10    1
    36     9    11    1
    37    10    12    1
    38    11     5    1
    39    33    34    1
    40    33    35    1
    41    34    36    1
    42    35    37    1
    43    37    43    1
    44    20    21   ar
    45    21    22   ar
@<TRIPOS>MOLECULE
UDP-glaA
 43 45 0 0 0
SMALL
GASTEIGER

@<TRIPOS>ATOM
      1 P          21.3756   72.1291   -4.7374 P.3     1  UNL1        0.2189
      2 O          20.6163   73.5542   -4.6377 O.3     1  UNL1       -0.4371
      3 O          22.4559   72.0588   -5.7767 O.2     1  UNL1       -0.5170
      4 O          20.1746   71.0580   -4.8984 O.3     1  UNL1       -0.3112
      5 C          19.5110   70.6037   -3.7311 C.3     1  UNL1        0.1811
      6 O          17.7963   71.5358   -5.1329 O.3     1  UNL1       -0.3308
      7 O          15.8338   70.1976   -3.3027 O.3     1  UNL1       -0.3794
      8 O          15.9034   68.5063   -5.4405 O.3     1  UNL1       -0.3779
      9 C          17.1165   69.7463   -3.7372 C.3     1  UNL1        0.1713
     10 C          17.0511   69.2870   -5.1785 C.3     1  UNL1        0.1895
     11 C          18.0342   70.9583   -3.8302 C.3     1  UNL1        0.1764
     12 C          17.0437   70.6070   -5.9305 C.3     1  UNL1        0.2383
     13 H          15.9331   70.5175   -2.3898 H       1  UNL1        0.2105
     14 H          15.9291   67.7386   -4.8438 H       1  UNL1        0.2106
     15 O          15.6285   70.7153   -8.3720 O.2     1  UNL1       -0.2464
     16 O          19.4849   70.1960  -10.8411 O.2     1  UNL1       -0.2670
     17 N          17.6526   70.5033   -7.2258 N.ar    1  UNL1       -0.2551
     18 N          17.5497   70.4562   -9.5999 N.ar    1  UNL1       -0.2743
     19 C          16.8520   70.5690   -8.3901 C.ar    1  UNL1        0.3323
     20 C          19.0290   70.3383   -7.3336 C.ar    1  UNL1        0.0869
     21 C          19.6795   70.2328   -8.4944 C.ar    1  UNL1        0.0795
     22 C          18.9170   70.2906   -9.7574 C.ar    1  UNL1        0.2626
     23 H          16.9944   70.5000  -10.4500 H       1  UNL1        0.1734
     24 O          21.8821   71.8816   -3.2217 O.3     1  UNL1       -0.2703
     25 P          23.3614   71.9487   -2.5738 P.3     1  UNL1        0.2208
     26 O          23.9226   73.3795   -3.0777 O.3     1  UNL1       -0.4371
     27 O          24.2396   70.7810   -2.9215 O.2     1  UNL1       -0.5170
     28 O          23.1068   72.1438   -0.9923 O.3     1  UNL1       -0.2858
     29 O          24.4427   71.1378    0.6818 O.3     1  UNL1       -0.3226
     30 O          20.8875   71.8489    2.7150 O.3     1  UNL1       -0.3794
     31 O          20.8530   70.8705   -0.0322 O.3     1  UNL1       -0.3775
     32 O          23.4376   71.0114    3.3674 O.3     1  UNL1       -0.3792
     33 C          21.9451   72.0603    1.7839 C.3     1  UNL1        0.1718
     34 C          22.0180   70.9000    0.7855 C.3     1  UNL1        0.1968
     35 C          23.2651   72.1747    2.5513 C.3     1  UNL1        0.1723
     36 C          23.2555   71.0316   -0.1109 C.3     1  UNL1        0.2706
     37 C          24.4271   72.2590    1.5640 C.3     1  UNL1        0.1830
     38 H          20.8803   72.6044    3.3273 H       1  UNL1        0.2105
     39 H          20.9485   70.1281   -0.6524 H       1  UNL1        0.2106
     40 H          23.6714   70.2629    2.7928 H       1  UNL1        0.2106
     41 O          26.2450   70.9830    2.3197 O.co2   1  UNL1       -0.5466
     42 O          26.3057   73.2239    2.7344 O.co2   1  UNL1       -0.5466
     43 C          25.7462   72.2417    2.2687 C.2     1  UNL1        0.0799
@<TRIPOS>UNITY_ATOM_ATTR
41 1
charge -1
@<TRIPOS>BOND
     1     1     4    1
     2     1    24    1
     3     1     2    1
     4     1     3    2
     5    25    28    1
     6    25    24    1
     7    25    26    1
     8    25    27    2
     9     6    11    1
    10     6    12    1
    11    29    36    1
    12    29    37    1
    13     7     9    1
    14     7    13    1
    15     8    10    1
    16     8    14    1
    17     4     5    1
    18    28    36    1
    19    30    33    1
    20    30    38    1
    21    31    34    1
    22    31    39    1
    23    32    35    1
    24    32    40    1
    25    41    43   ar
    26    15    19    2
    27    42    43   ar
    28    16    22    2
    29    17    12    1
    30    17    19   ar
    31    17    20   ar
    32    18    19   ar
    33    18    22   ar
    34    18    23    1
    35     9    10    1
    36     9    11    1
    37    10    12    1
    38    11     5    1
    39    33    34    1
    40    33    35    1
    41    34    36    1
    42    35    37    1
    43    37    43    1
    44    20    21   ar
    45    21    22   ar
@<TRIPOS>MOLECULE
UDP-glaA
 43 45 0 0 0
SMALL
GASTEIGER

@<TRIPOS>ATOM
      1 P          21.8104   72.5616   -5.8893 P.3     1  UNL1        0.2189
      2 O          22.8913   71.7640   -4.9877 O.3     1  UNL1       -0.4371
      3 O          20.8576   73.4268   -5.1174 O.2     1  UNL1       -0.5170
      4 O          21.1334   71.4076   -6.7979 O.3     1  UNL1       -0.3112
      5 C          20.4310   71.7915   -7.9678 C.3     1  UNL1        0.1811
      6 O          19.1671   69.8395   -7.3622 O.3     1  UNL1       -0.3308
      7 O          18.0929   69.8960  -10.1611 O.3     1  UNL1       -0.3794
      8 O          16.0563   70.9956   -8.7193 O.3     1  UNL1       -0.3779
      9 C          18.4180   70.9842   -9.2963 C.3     1  UNL1        0.1713
     10 C          17.3689   71.1262   -8.2138 C.3     1  UNL1        0.1895
     11 C          19.6527   70.5942   -8.4944 C.3     1  UNL1        0.1764
     12 C          17.7428   70.0024   -7.2624 C.3     1  UNL1        0.2383
     13 H          18.8107   69.8191  -10.8126 H       1  UNL1        0.2105
     14 H          15.9343   71.6817   -9.3979 H       1  UNL1        0.2106
     15 O          16.2748   68.2805   -5.5725 O.2     1  UNL1       -0.2464
     16 O          16.4877   71.2515   -2.0559 O.2     1  UNL1       -0.2670
     17 N          17.4009   70.3003   -5.9009 N.ar    1  UNL1       -0.2551
     18 N          16.3814   69.7613   -3.8227 N.ar    1  UNL1       -0.2743
     19 C          16.6598   69.3677   -5.1382 C.ar    1  UNL1        0.3323
     20 C          17.7991   71.5060   -5.3341 C.ar    1  UNL1        0.0869
     21 C          17.5263   71.8664   -4.0781 C.ar    1  UNL1        0.0795
     22 C          16.7556   70.9497   -3.2148 C.ar    1  UNL1        0.2626
     23 H          15.8491   69.1067   -3.2559 H       1  UNL1        0.1734
     24 O          22.7384   73.3588   -6.9468 O.3     1  UNL1       -0.2703
     25 P          22.8869   74.9403   -7.2456 P.3     1  UNL1        0.2208
     26 O          23.7616   75.4739   -5.9940 O.3     1  UNL1       -0.4371
     27 O          21.5807   75.6560   -7.4390 O.2     1  UNL1       -0.5170
     28 O          23.8873   75.0257   -8.5089 O.3     1  UNL1       -0.2858
     29 O          25.9515   76.1816   -8.5555 O.3     1  UNL1       -0.3226
     30 O          24.8682   76.1713  -12.5687 O.3     1  UNL1       -0.3794
     31 O          22.8727   76.6512  -10.4966 O.3     1  UNL1       -0.3775
     32 O          27.0977   76.8701  -11.0953 O.3     1  UNL1       -0.3792
     33 C          24.9872   75.7026  -11.2284 C.3     1  UNL1        0.1718
     34 C          24.2771   76.6578  -10.2631 C.3     1  UNL1        0.1968
     35 C          26.4722   75.6027  -10.8687 C.3     1  UNL1        0.1723
     36 C          24.5444   76.2567   -8.8071 C.3     1  UNL1        0.2706
     37 C          26.6194   75.2390   -9.3928 C.3     1  UNL1        0.1830
     38 H          25.3330   75.5391  -13.1429 H       1  UNL1        0.2105
     39 H          22.4663   77.2611   -9.8581 H       1  UNL1        0.2106
     40 H          26.8215   77.4812  -10.3914 H       1  UNL1        0.2106
     41 O          28.1484   75.3705   -7.6184 O.co2   1  UNL1       -0.5466
     42 O          29.0109   75.1781   -9.7198 O.co2   1  UNL1       -0.5466
     43 C          28.0525   75.2573   -8.9651 C.2     1  UNL1        0.0799
@<TRIPOS>UNITY_ATOM_ATTR
41 1
charge -1
@<TRIPOS>BOND
     1     1     4    1
     2     1    24    1
     3     1     2    1
     4     1     3    2
     5    25    28    1
     6    25    24    1
     7    25    26    1
     8    25    27    2
     9     6    11    1
    10     6    12    1
    11    29    36    1
    12    29    37    1
    13     7     9    1
    14     7    13    1
    15     8    10    1
    16     8    14    1
    17     4     5    1
    18    28    36    1
    19    30    33    1
    20    30    38    1
    21    31    34    1
    22    31    39    1
    23    32    35    1
    24    32    40    1
    25    41    43   ar
    26    15    19    2
    27    42    43   ar
    28    16    22    2
    29    17    12    1
    30    17    19   ar
    31    17    20   ar
    32    18    19   ar
    33    18    22   ar
    34    18    23    1
    35     9    10    1
    36     9    11    1
    37    10    12    1
    38    11     5    1
    39    33    34    1
    40    33    35    1
    41    34    36    1
    42    35    37    1
    43    37    43    1
    44    20    21   ar
    45    21    22   ar
@<TRIPOS>MOLECULE
UDP-glaA
 43 45 0 0 0
SMALL
GASTEIGER

@<TRIPOS>ATOM
      1 P          22.0183   71.3823   -2.8265 P.3     1  UNL1        0.2189
      2 O          21.7901   72.9836   -2.8609 O.3     1  UNL1       -0.4371
      3 O          23.4526   70.9458   -2.8927 O.2     1  UNL1       -0.5170
      4 O          21.0594   70.8265   -4.0042 O.3     1  UNL1       -0.3112
      5 C          20.0907   69.8432   -3.6816 C.3     1  UNL1        0.1811
      6 O          18.4980   71.2803   -4.7644 O.3     1  UNL1       -0.3308
      7 O          16.4751   70.1695   -2.8499 O.3     1  UNL1       -0.3794
      8 O          15.9574   68.7778   -5.1370 O.3     1  UNL1       -0.3779
      9 C          17.5764   69.5157   -3.4802 C.3     1  UNL1        0.1713
     10 C          17.2702   69.2615   -4.9410 C.3     1  UNL1        0.1895
     11 C          18.7273   70.5097   -3.5641 C.3     1  UNL1        0.1764
     12 C          17.4835   70.6359   -5.5522 C.3     1  UNL1        0.2383
     13 H          16.7317   70.3465   -1.9288 H       1  UNL1        0.2105
     14 H          15.8697   67.9543   -4.6268 H       1  UNL1        0.2106
     15 O          15.7633   70.3411   -7.7725 O.2     1  UNL1       -0.2464
     16 O          19.2886   70.3809  -10.7405 O.2     1  UNL1       -0.2670
     17 N          17.9246   70.5669   -6.9160 N.ar    1  UNL1       -0.2551
     18 N          17.5200   70.3606   -9.2490 N.ar    1  UNL1       -0.2743
     19 C          16.9793   70.4174   -7.9576 C.ar    1  UNL1        0.3323
     20 C          19.2811   70.6471   -7.2107 C.ar    1  UNL1        0.0869
     21 C          19.7808   70.5919   -8.4472 C.ar    1  UNL1        0.0795
     22 C          18.8612   70.4356   -9.5915 C.ar    1  UNL1        0.2626
     23 H          16.8590   70.2527  -10.0135 H       1  UNL1        0.1734
     24 O          21.2394   70.9341   -1.4820 O.3     1  UNL1       -0.2703
     25 P          21.5019   71.3051    0.0691 P.3     1  UNL1        0.2208
     26 O          22.8169   72.2450    0.0084 O.3     1  UNL1       -0.4371
     27 O          21.6328   70.1134    0.9738 O.2     1  UNL1       -0.5170
     28 O          20.3000   72.3090    0.4586 O.3     1  UNL1       -0.2858
     29 O          19.2398   73.9317   -0.8987 O.3     1  UNL1       -0.3226
     30 O          18.8894   75.6027    2.8913 O.3     1  UNL1       -0.3794
     31 O          21.3577   74.2790    2.0781 O.3     1  UNL1       -0.3775
     32 O          17.9174   76.1447    0.3632 O.3     1  UNL1       -0.3792
     33 C          18.9543   74.5887    1.8924 C.3     1  UNL1        0.1718
     34 C          20.3101   74.6271    1.1791 C.3     1  UNL1        0.1968
     35 C          17.8250   74.8144    0.8834 C.3     1  UNL1        0.1723
     36 C          20.3267   73.6570   -0.0087 C.3     1  UNL1        0.2706
     37 C          17.9629   73.8245   -0.2712 C.3     1  UNL1        0.1830
     38 H          18.0157   75.5427    3.3139 H       1  UNL1        0.2105
     39 H          22.1925   74.3078    1.5810 H       1  UNL1        0.2106
     40 H          18.6685   76.1840   -0.2528 H       1  UNL1        0.2106
     41 O          16.6052   72.9429   -1.9692 O.co2   1  UNL1       -0.5466
     42 O          16.5070   75.1943   -1.6253 O.co2   1  UNL1       -0.5466
     43 C          16.9571   74.0928   -1.3451 C.2     1  UNL1        0.0799
@<TRIPOS>UNITY_ATOM_ATTR
41 1
charge -1
@<TRIPOS>BOND
     1     1     4    1
     2     1    24    1
     3     1     2    1
     4     1     3    2
     5    25    28    1
     6    25    24    1
     7    25    26    1
     8    25    27    2
     9     6    11    1
    10     6    12    1
    11    29    36    1
    12    29    37    1
    13     7     9    1
    14     7    13    1
    15     8    10    1
    16     8    14    1
    17     4     5    1
    18    28    36    1
    19    30    33    1
    20    30    38    1
    21    31    34    1
    22    31    39    1
    23    32    35    1
    24    32    40    1
    25    41    43   ar
    26    15    19    2
    27    42    43   ar
    28    16    22    2
    29    17    12    1
    30    17    19   ar
    31    17    20   ar
    32    18    19   ar
    33    18    22   ar
    34    18    23    1
    35     9    10    1
    36     9    11    1
    37    10    12    1
    38    11     5    1
    39    33    34    1
    40    33    35    1
    41    34    36    1
    42    35    37    1
    43    37    43    1
    44    20    21   ar
    45    21    22   ar
@<TRIPOS>MOLECULE
UDP-glaA
 43 45 0 0 0
SMALL
GASTEIGER

@<TRIPOS>ATOM
      1 P          21.5346   72.8968   -4.6125 P.3     1  UNL1        0.2189
      2 O          20.8028   74.2837   -5.0103 O.3     1  UNL1       -0.4371
      3 O          21.8387   71.9877   -5.7671 O.2     1  UNL1       -0.5170
      4 O          20.5886   72.2743   -3.4579 O.3     1  UNL1       -0.3112
      5 C          19.9206   71.0510   -3.7158 C.3     1  UNL1        0.1811
      6 O          18.0221   71.7962   -4.9865 O.3     1  UNL1       -0.3308
      7 O          16.3378   70.3937   -2.9403 O.3     1  UNL1       -0.3794
      8 O          16.3481   68.6256   -5.0162 O.3     1  UNL1       -0.3779
      9 C          17.6079   70.0204   -3.4741 C.3     1  UNL1        0.1713
     10 C          17.4511   69.4987   -4.8868 C.3     1  UNL1        0.1895
     11 C          18.4179   71.2916   -3.6920 C.3     1  UNL1        0.1764
     12 C          17.2758   70.7825   -5.6799 C.3     1  UNL1        0.2383
     13 H          16.4924   70.7572   -2.0517 H       1  UNL1        0.2105
     14 H          16.4853   67.8870   -4.3983 H       1  UNL1        0.2106
     15 O          15.6532   70.3841   -7.9567 O.2     1  UNL1       -0.2464
     16 O          19.2979   70.3665  -10.7770 O.2     1  UNL1       -0.2670
     17 N          17.7740   70.6708   -7.0211 N.ar    1  UNL1       -0.2551
     18 N          17.4692   70.3750   -9.3595 N.ar    1  UNL1       -0.2743
     19 C          16.8747   70.4707   -8.0944 C.ar    1  UNL1        0.3323
     20 C          19.1404   70.7594   -7.2625 C.ar    1  UNL1        0.0869
     21 C          19.6917   70.6667   -8.4746 C.ar    1  UNL1        0.0795
     22 C          18.8224   70.4565   -9.6493 C.ar    1  UNL1        0.2626
     23 H          16.8419   70.2305  -10.1461 H       1  UNL1        0.1734
     24 O          22.8332   73.3959   -3.7880 O.3     1  UNL1       -0.2703
     25 P          23.1410   73.4094   -2.2013 P.3     1  UNL1        0.2208
     26 O          24.2758   74.5523   -2.0531 O.3     1  UNL1       -0.4371
     27 O          23.5301   72.0726   -1.6379 O.2     1  UNL1       -0.5170
     28 O          21.8212   74.0553   -1.5342 O.3     1  UNL1       -0.2858
     29 O          21.6852   72.8300    0.4856 O.3     1  UNL1       -0.3226
     30 O          25.2377   74.9313    0.9792 O.3     1  UNL1       -0.3794
     31 O          22.9066   76.2203   -0.2085 O.3     1  UNL1       -0.3775
     32 O          23.8994   72.9144    2.3100 O.3     1  UNL1       -0.3792
     33 C          24.1990   74.2270    0.3044 C.3     1  UNL1        0.1718
     34 C          22.8646   74.9642    0.4604 C.3     1  UNL1        0.1968
     35 C          24.0913   72.8183    0.8948 C.3     1  UNL1        0.1723
     36 C          21.7127   74.1298   -0.1134 C.3     1  UNL1        0.2706
     37 C          22.8922   72.0963    0.2843 C.3     1  UNL1        0.1830
     38 H          26.0609   74.4286    0.8562 H       1  UNL1        0.2105
     39 H          22.0400   76.6446   -0.0905 H       1  UNL1        0.2106
     40 H          22.9886   73.2096    2.4789 H       1  UNL1        0.2106
     41 O          23.8347   70.2667    1.4104 O.co2   1  UNL1       -0.5466
     42 O          21.5917   70.1955    1.0093 O.co2   1  UNL1       -0.5466
     43 C          22.6710   70.7635    0.9261 C.2     1  UNL1        0.0799
@<TRIPOS>UNITY_ATOM_ATTR
41 1
charge -1
@<TRIPOS>BOND
     1     1     4    1
     2     1    24    1
     3     1     2    1
     4     1     3    2
     5    25    28    1
     6    25    24    1
     7    25    26    1
     8    25    27    2
     9     6    11    1
    10     6    12    1
    11    29    36    1
    12    29    37    1
    13     7     9    1
    14     7    13    1
    15     8    10    1
    16     8    14    1
    17     4     5    1
    18    28    36    1
    19    30    33    1
    20    30    38    1
    21    31    34    1
    22    31    39    1
    23    32    35    1
    24    32    40    1
    25    41    43   ar
    26    15    19    2
    27    42    43   ar
    28    16    22    2
    29    17    12    1
    30    17    19   ar
    31    17    20   ar
    32    18    19   ar
    33    18    22   ar
    34    18    23    1
    35     9    10    1
    36     9    11    1
    37    10    12    1
    38    11     5    1
    39    33    34    1
    40    33    35    1
    41    34    36    1
    42    35    37    1
    43    37    43    1
    44    20    21   ar
    45    21    22   ar
@<TRIPOS>MOLECULE
UDP-glaA
 43 45 0 0 0
SMALL
GASTEIGER

@<TRIPOS>ATOM
      1 P          22.8728   71.3284   -2.2635 P.3     1  UNL1        0.2189
      2 O          22.4336   72.8739   -2.4529 O.3     1  UNL1       -0.4371
      3 O          24.0711   70.9083   -3.0634 O.2     1  UNL1       -0.5170
      4 O          21.5132   70.4994   -2.5461 O.3     1  UNL1       -0.3112
      5 C          20.8518   70.6854   -3.7860 C.3     1  UNL1        0.1811
      6 O          18.9084   71.7384   -4.7287 O.3     1  UNL1       -0.3308
      7 O          17.3712   70.4940   -2.4748 O.3     1  UNL1       -0.3794
      8 O          16.8148   68.8322   -4.5641 O.3     1  UNL1       -0.3779
      9 C          18.4795   69.9729   -3.2082 C.3     1  UNL1        0.1713
     10 C          18.0377   69.5390   -4.5899 C.3     1  UNL1        0.1895
     11 C          19.4198   71.1290   -3.5227 C.3     1  UNL1        0.1764
     12 C          17.9289   70.8677   -5.3184 C.3     1  UNL1        0.2383
     13 H          17.7088   70.7942   -1.6138 H       1  UNL1        0.2105
     14 H          16.9375   68.0559   -3.9910 H       1  UNL1        0.2106
     15 O          15.9867   70.2196   -7.2634 O.2     1  UNL1       -0.2464
     16 O          19.0733   70.4274  -10.6793 O.2     1  UNL1       -0.2670
     17 N          18.1970   70.7464   -6.7229 N.ar    1  UNL1       -0.2551
     18 N          17.5251   70.3230   -8.9630 N.ar    1  UNL1       -0.2743
     19 C          17.1511   70.4159   -7.6160 C.ar    1  UNL1        0.3323
     20 C          19.4854   70.9540   -7.2031 C.ar    1  UNL1        0.0869
     21 C          19.8259   70.8622   -8.4905 C.ar    1  UNL1        0.0795
     22 C          18.7928   70.5201   -9.4882 C.ar    1  UNL1        0.2626
     23 H          16.7894   70.0858   -9.6231 H       1  UNL1        0.1734
     24 O          23.0522   71.1964   -0.6618 O.3     1  UNL1       -0.2703
     25 P          22.0322   71.5200    0.5496 P.3     1  UNL1        0.2208
     26 O          21.6856   70.0562    1.1440 O.3     1  UNL1       -0.4371
     27 O          20.8307   72.3251    0.1448 O.2     1  UNL1       -0.5170
     28 O          22.9490   72.2139    1.6818 O.3     1  UNL1       -0.2858
     29 O          22.1997   73.8179    3.2518 O.3     1  UNL1       -0.3226
     30 O          26.2596   74.6746    3.0016 O.3     1  UNL1       -0.3794
     31 O          24.7318   74.0255    0.6036 O.3     1  UNL1       -0.3775
     32 O          24.1370   75.4659    4.5822 O.3     1  UNL1       -0.3792
     33 C          25.0699   73.8905    3.0066 C.3     1  UNL1        0.1718
     34 C          24.1418   74.3203    1.8654 C.3     1  UNL1        0.1968
     35 C          24.3632   74.0713    4.3528 C.3     1  UNL1        0.1723
     36 C          22.7897   73.6032    1.9655 C.3     1  UNL1        0.2706
     37 C          23.0159   73.3528    4.3257 C.3     1  UNL1        0.1830
     38 H          26.8145   74.3704    3.7400 H       1  UNL1        0.2105
     39 H          24.1060   74.3055   -0.0854 H       1  UNL1        0.2106
     40 H          23.4152   75.7613    4.0017 H       1  UNL1        0.2106
     41 O          22.9855   73.3558    6.6715 O.co2   1  UNL1       -0.5466
     42 O          21.0750   74.0002    5.6077 O.co2   1  UNL1       -0.5466
     43 C          22.2332   73.6104    5.5739 C.2     1  UNL1        0.0799
@<TRIPOS>UNITY_ATOM_ATTR
41 1
charge -1
@<TRIPOS>BOND
     1     1     4    1
     2     1    24    1
     3     1     2    1
     4     1     3    2
     5    25    28    1
     6    25    24    1
     7    25    26    1
     8    25    27    2
     9     6    11    1
    10     6    12    1
    11    29    36    1
    12    29    37    1
    13     7     9    1
    14     7    13    1
    15     8    10    1
    16     8    14    1
    17     4     5    1
    18    28    36    1
    19    30    33    1
    20    30    38    1
    21    31    34    1
    22    31    39    1
    23    32    35    1
    24    32    40    1
    25    41    43   ar
    26    15    19    2
    27    42    43   ar
    28    16    22    2
    29    17    12    1
    30    17    19   ar
    31    17    20   ar
    32    18    19   ar
    33    18    22   ar
    34    18    23    1
    35     9    10    1
    36     9    11    1
    37    10    12    1
    38    11     5    1
    39    33    34    1
    40    33    35    1
    41    34    36    1
    42    35    37    1
    43    37    43    1
    44    20    21   ar
    45    21    22   ar
@<TRIPOS>MOLECULE
UDP-glaA
 43 45 0 0 0
SMALL
GASTEIGER

@<TRIPOS>ATOM
      1 P          23.6593   72.9350   -3.6722 P.3     1  UNL1        0.2189
      2 O          24.9829   73.8578   -3.7895 O.3     1  UNL1       -0.4371
      3 O          23.9229   71.4627   -3.5501 O.2     1  UNL1       -0.5170
      4 O          22.7570   73.3851   -4.9367 O.3     1  UNL1       -0.3112
      5 C          22.2099   72.3783   -5.7711 C.3     1  UNL1        0.1811
      6 O          20.4883   72.1139   -7.4265 O.3     1  UNL1       -0.3308
      7 O          20.5533   75.0992   -7.7005 O.3     1  UNL1       -0.3794
      8 O          18.3566   74.6924   -6.1368 O.3     1  UNL1       -0.3779
      9 C          20.7223   74.2955   -6.5329 C.3     1  UNL1        0.1713
     10 C          19.3901   73.7307   -6.0868 C.3     1  UNL1        0.1895
     11 C          21.4831   73.0385   -6.9340 C.3     1  UNL1        0.1764
     12 C          19.1809   72.5966   -7.0758 C.3     1  UNL1        0.2383
     13 H          21.4353   75.4062   -7.9711 H       1  UNL1        0.2105
     14 H          18.6175   75.4326   -5.5621 H       1  UNL1        0.2106
     15 O          17.4527   70.9294   -8.5620 O.2     1  UNL1       -0.2464
     16 O          16.3031   68.4843   -4.8286 O.2     1  UNL1       -0.2670
     17 N          18.4182   71.5165   -6.5179 N.ar    1  UNL1       -0.2551
     18 N          16.8810   69.7132   -6.7019 N.ar    1  UNL1       -0.2743
     19 C          17.5791   70.7401   -7.3509 C.ar    1  UNL1        0.3323
     20 C          18.5057   71.2357   -5.1589 C.ar    1  UNL1        0.0869
     21 C          17.8340   70.2528   -4.5552 C.ar    1  UNL1        0.0795
     22 C          16.9352   69.3958   -5.3535 C.ar    1  UNL1        0.2626
     23 H          16.2711   69.1424   -7.2810 H       1  UNL1        0.1734
     24 O          22.8745   73.5851   -2.4165 O.3     1  UNL1       -0.2703
     25 P          21.4268   74.2981   -2.3249 P.3     1  UNL1        0.2208
     26 O          20.4068   73.1262   -2.7746 O.3     1  UNL1       -0.4371
     27 O          21.3111   75.5625   -3.1273 O.2     1  UNL1       -0.5170
     28 O          21.1625   74.4853   -0.7441 O.3     1  UNL1       -0.2858
     29 O          20.7280   72.3807    0.2466 O.3     1  UNL1       -0.3226
     30 O          20.2180   74.9751    3.4541 O.3     1  UNL1       -0.3794
     31 O          19.2137   75.6761    0.8073 O.3     1  UNL1       -0.3775
     32 O          20.3345   72.2399    3.0863 O.3     1  UNL1       -0.3792
     33 C          20.7573   74.4622    2.2391 C.3     1  UNL1        0.1718
     34 C          19.6674   74.3751    1.1654 C.3     1  UNL1        0.1968
     35 C          21.3431   73.0727    2.5049 C.3     1  UNL1        0.1723
     36 C          20.1953   73.6664   -0.0882 C.3     1  UNL1        0.2706
     37 C          21.7980   72.4471    1.1881 C.3     1  UNL1        0.1830
     38 H          20.9405   75.0104    4.1040 H       1  UNL1        0.2105
     39 H          18.5338   75.5711    0.1206 H       1  UNL1        0.2106
     40 H          19.6980   71.9959    2.3931 H       1  UNL1        0.2106
     41 O          23.4756   71.0090    1.9763 O.co2   1  UNL1       -0.5466
     42 O          21.6275   70.0422    1.0559 O.co2   1  UNL1       -0.5466
     43 C          22.2582   71.0373    1.3823 C.2     1  UNL1        0.0799
@<TRIPOS>UNITY_ATOM_ATTR
41 1
charge -1
@<TRIPOS>BOND
     1     1     4    1
     2     1    24    1
     3     1     2    1
     4     1     3    2
     5    25    28    1
     6    25    24    1
     7    25    26    1
     8    25    27    2
     9     6    11    1
    10     6    12    1
    11    29    36    1
    12    29    37    1
    13     7     9    1
    14     7    13    1
    15     8    10    1
    16     8    14    1
    17     4     5    1
    18    28    36    1
    19    30    33    1
    20    30    38    1
    21    31    34    1
    22    31    39    1
    23    32    35    1
    24    32    40    1
    25    41    43   ar
    26    15    19    2
    27    42    43   ar
    28    16    22    2
    29    17    12    1
    30    17    19   ar
    31    17    20   ar
    32    18    19   ar
    33    18    22   ar
    34    18    23    1
    35     9    10    1
    36     9    11    1
    37    10    12    1
    38    11     5    1
    39    33    34    1
    40    33    35    1
    41    34    36    1
    42    35    37    1
    43    37    43    1
    44    20    21   ar
    45    21    22   ar
@<TRIPOS>MOLECULE
UDP-glaA
 43 45 0 0 0
SMALL
GASTEIGER

@<TRIPOS>ATOM
      1 P          21.3598   72.1072   -3.1741 P.3     1  UNL1        0.2189
      2 O          21.5566   73.6229   -3.7046 O.3     1  UNL1       -0.4371
      3 O          22.0420   71.0546   -3.9979 O.2     1  UNL1       -0.5170
      4 O          19.7570   71.9522   -3.0230 O.3     1  UNL1       -0.3112
      5 C          19.1456   70.7587   -3.4822 C.3     1  UNL1        0.1811
      6 O          17.4345   71.5897   -4.9505 O.3     1  UNL1       -0.3308
      7 O          15.4953   70.0559   -3.2539 O.3     1  UNL1       -0.3794
      8 O          15.8055   68.4304   -5.4212 O.3     1  UNL1       -0.3779
      9 C          16.8299   69.7174   -3.6309 C.3     1  UNL1        0.1713
     10 C          16.8732   69.2914   -5.0832 C.3     1  UNL1        0.1895
     11 C          17.6520   70.9993   -3.6500 C.3     1  UNL1        0.1764
     12 C          16.7988   70.6256   -5.8060 C.3     1  UNL1        0.2383
     13 H          15.5232   70.3590   -2.3303 H       1  UNL1        0.2105
     14 H          15.8622   67.6520   -4.8407 H       1  UNL1        0.2106
     15 O          15.5011   70.6001   -8.3141 O.2     1  UNL1       -0.2464
     16 O          19.5073   70.5370  -10.5912 O.2     1  UNL1       -0.2670
     17 N          17.4778   70.6031   -7.0699 N.ar    1  UNL1       -0.2551
     18 N          17.4969   70.5681   -9.4463 N.ar    1  UNL1       -0.2743
     19 C          16.7327   70.5908   -8.2722 C.ar    1  UNL1        0.3323
     20 C          18.8677   70.5931   -7.1100 C.ar    1  UNL1        0.0869
     21 C          19.5818   70.5720   -8.2376 C.ar    1  UNL1        0.0795
     22 C          18.8802   70.5571   -9.5365 C.ar    1  UNL1        0.2626
     23 H          16.9823   70.5584  -10.3228 H       1  UNL1        0.1734
     24 O          21.8626   72.1923   -1.6395 O.3     1  UNL1       -0.2703
     25 P          22.4622   73.4279   -0.7872 P.3     1  UNL1        0.2208
     26 O          21.2631   74.5131   -0.8130 O.3     1  UNL1       -0.4371
     27 O          23.7777   73.9453   -1.2946 O.2     1  UNL1       -0.5170
     28 O          22.4981   72.8951    0.7356 O.3     1  UNL1       -0.2858
     29 O          23.6091   74.6189    1.9160 O.3     1  UNL1       -0.3226
     30 O          22.4851   72.0477    4.9828 O.3     1  UNL1       -0.3794
     31 O          23.5057   70.9916    2.4630 O.3     1  UNL1       -0.3775
     32 O          23.5772   74.5772    4.7858 O.3     1  UNL1       -0.3792
     33 C          22.4052   72.7416    3.7408 C.3     1  UNL1        0.1718
     34 C          23.5852   72.3622    2.8397 C.3     1  UNL1        0.1968
     35 C          22.4177   74.2482    4.0137 C.3     1  UNL1        0.1723
     36 C          23.6031   73.2289    1.5744 C.3     1  UNL1        0.2706
     37 C          22.4762   75.0089    2.6908 C.3     1  UNL1        0.1830
     38 H          21.7219   72.3196    5.5204 H       1  UNL1        0.2105
     39 H          24.2656   70.8009    1.8876 H       1  UNL1        0.2106
     40 H          24.3570   74.5309    4.2072 H       1  UNL1        0.2106
     41 O          22.7600   77.1308    1.7313 O.co2   1  UNL1       -0.5466
     42 O          22.6121   77.0305    4.0040 O.co2   1  UNL1       -0.5466
     43 C          22.6207   76.4810    2.9120 C.2     1  UNL1        0.0799
@<TRIPOS>UNITY_ATOM_ATTR
41 1
charge -1
@<TRIPOS>BOND
     1     1     4    1
     2     1    24    1
     3     1     2    1
     4     1     3    2
     5    25    28    1
     6    25    24    1
     7    25    26    1
     8    25    27    2
     9     6    11    1
    10     6    12    1
    11    29    36    1
    12    29    37    1
    13     7     9    1
    14     7    13    1
    15     8    10    1
    16     8    14    1
    17     4     5    1
    18    28    36    1
    19    30    33    1
    20    30    38    1
    21    31    34    1
    22    31    39    1
    23    32    35    1
    24    32    40    1
    25    41    43   ar
    26    15    19    2
    27    42    43   ar
    28    16    22    2
    29    17    12    1
    30    17    19   ar
    31    17    20   ar
    32    18    19   ar
    33    18    22   ar
    34    18    23    1
    35     9    10    1
    36     9    11    1
    37    10    12    1
    38    11     5    1
    39    33    34    1
    40    33    35    1
    41    34    36    1
    42    35    37    1
    43    37    43    1
    44    20    21   ar
    45    21    22   ar
@<TRIPOS>MOLECULE
UDP-glaA
 43 45 0 0 0
SMALL
GASTEIGER

@<TRIPOS>ATOM
      1 P          23.6649   72.4246   -3.5015 P.3     1  UNL1        0.2189
      2 O          24.3003   70.9803   -3.1442 O.3     1  UNL1       -0.4371
      3 O          24.6676   73.5110   -3.7594 O.2     1  UNL1       -0.5170
      4 O          22.6233   72.7012   -2.2956 O.3     1  UNL1       -0.3112
      5 C          21.8296   73.8747   -2.3418 C.3     1  UNL1        0.1811
      6 O          21.0121   72.6388   -0.4501 O.3     1  UNL1       -0.3308
      7 O          19.2941   75.0267    0.1309 O.3     1  UNL1       -0.3794
      8 O          21.3469   75.3254    1.9008 O.3     1  UNL1       -0.3779
      9 C          20.6210   74.9747   -0.3929 C.3     1  UNL1        0.1713
     10 C          21.6047   74.6223    0.7029 C.3     1  UNL1        0.1895
     11 C          20.7169   73.7621   -1.3094 C.3     1  UNL1        0.1764
     12 C          21.3931   73.1249    0.8476 C.3     1  UNL1        0.2383
     13 H          18.6964   75.2164   -0.6123 H       1  UNL1        0.2105
     14 H          21.3950   76.2756    1.6986 H       1  UNL1        0.2106
     15 O          21.5873   70.3296    1.1997 O.2     1  UNL1       -0.2464
     16 O          26.0049   70.6139    2.4813 O.2     1  UNL1       -0.2670
     17 N          22.5817   72.4418    1.2718 N.ar    1  UNL1       -0.2551
     18 N          23.7868   70.4731    1.8382 N.ar    1  UNL1       -0.2743
     19 C          22.5738   71.0350    1.4187 C.ar    1  UNL1        0.3323
     20 C          23.7392   73.1649    1.5379 C.ar    1  UNL1        0.0869
     21 C          24.8880   72.6144    1.9366 C.ar    1  UNL1        0.0795
     22 C          24.9639   71.1509    2.1153 C.ar    1  UNL1        0.2626
     23 H          23.8043   69.4631    1.9511 H       1  UNL1        0.1734
     24 O          22.6936   72.0939   -4.7515 O.3     1  UNL1       -0.2703
     25 P          22.1830   73.0224   -5.9720 P.3     1  UNL1        0.2208
     26 O          23.0334   72.4761   -7.2347 O.3     1  UNL1       -0.4371
     27 O          22.3204   74.4972   -5.7234 O.2     1  UNL1       -0.5170
     28 O          20.6718   72.5319   -6.2545 O.3     1  UNL1       -0.2858
     29 O          19.6029   70.5334   -5.5742 O.3     1  UNL1       -0.3226
     30 O          17.6976   71.3578   -9.1755 O.3     1  UNL1       -0.3794
     31 O          20.5751   71.7448   -8.8991 O.3     1  UNL1       -0.3775
     32 O          17.3701   69.5677   -7.0975 O.3     1  UNL1       -0.3792
     33 C          18.3487   71.6117   -7.9337 C.3     1  UNL1        0.1718
     34 C          19.7732   71.0472   -7.9519 C.3     1  UNL1        0.1968
     35 C          17.5408   70.9592   -6.8085 C.3     1  UNL1        0.1723
     36 C          20.4208   71.1623   -6.5664 C.3     1  UNL1        0.2706
     37 C          18.2954   71.0978   -5.4881 C.3     1  UNL1        0.1830
     38 H          16.8008   71.7292   -9.1179 H       1  UNL1        0.2105
     39 H          21.4672   71.3601   -8.8681 H       1  UNL1        0.2106
     40 H          18.2168   69.1146   -6.9461 H       1  UNL1        0.2106
     41 O          16.2623   70.5158   -4.4723 O.co2   1  UNL1       -0.5466
     42 O          18.1684   69.7069   -3.5185 O.co2   1  UNL1       -0.5466
     43 C          17.6055   70.3619   -4.3837 C.2     1  UNL1        0.0799
@<TRIPOS>UNITY_ATOM_ATTR
41 1
charge -1
@<TRIPOS>BOND
     1     1     4    1
     2     1    24    1
     3     1     2    1
     4     1     3    2
     5    25    28    1
     6    25    24    1
     7    25    26    1
     8    25    27    2
     9     6    11    1
    10     6    12    1
    11    29    36    1
    12    29    37    1
    13     7     9    1
    14     7    13    1
    15     8    10    1
    16     8    14    1
    17     4     5    1
    18    28    36    1
    19    30    33    1
    20    30    38    1
    21    31    34    1
    22    31    39    1
    23    32    35    1
    24    32    40    1
    25    41    43   ar
    26    15    19    2
    27    42    43   ar
    28    16    22    2
    29    17    12    1
    30    17    19   ar
    31    17    20   ar
    32    18    19   ar
    33    18    22   ar
    34    18    23    1
    35     9    10    1
    36     9    11    1
    37    10    12    1
    38    11     5    1
    39    33    34    1
    40    33    35    1
    41    34    36    1
    42    35    37    1
    43    37    43    1
    44    20    21   ar
    45    21    22   ar
@<TRIPOS>MOLECULE
UDP-glaA
 43 45 0 0 0
SMALL
GASTEIGER

@<TRIPOS>ATOM
      1 P          22.6908   72.2010   -1.8940 P.3     1  UNL1        0.2189
      2 O          23.4515   73.5742   -2.2851 O.3     1  UNL1       -0.4371
      3 O          23.3051   70.9540   -2.4594 O.2     1  UNL1       -0.5170
      4 O          21.1519   72.4765   -2.3079 O.3     1  UNL1       -0.3112
      5 C          20.5751   71.6882   -3.3351 C.3     1  UNL1        0.1811
      6 O          18.3900   71.9201   -4.3077 O.3     1  UNL1       -0.3308
      7 O          17.4040   70.2310   -2.0347 O.3     1  UNL1       -0.3794
      8 O          17.5343   68.4449   -4.0910 O.3     1  UNL1       -0.3779
      9 C          18.6353   70.1499   -2.7524 C.3     1  UNL1        0.1713
     10 C          18.4040   69.5575   -4.1266 C.3     1  UNL1        0.1895
     11 C          19.0782   71.5681   -3.0871 C.3     1  UNL1        0.1764
     12 C          17.8145   70.7356   -4.8831 C.3     1  UNL1        0.2383
     13 H          17.5947   70.6512   -1.1787 H       1  UNL1        0.2105
     14 H          17.9320   67.7813   -3.5013 H       1  UNL1        0.2106
     15 O          16.1831   69.5293   -6.8475 O.2     1  UNL1       -0.2464
     16 O          19.1078   70.6520  -10.2276 O.2     1  UNL1       -0.2670
     17 N          18.1249   70.6985   -6.2837 N.ar    1  UNL1       -0.2551
     18 N          17.6408   70.0887   -8.5293 N.ar    1  UNL1       -0.2743
     19 C          17.2388   70.0667   -7.1873 C.ar    1  UNL1        0.3323
     20 C          19.2969   71.2838   -6.7497 C.ar    1  UNL1        0.0869
     21 C          19.6659   71.2968   -8.0324 C.ar    1  UNL1        0.0795
     22 C          18.7969   70.6578   -9.0404 C.ar    1  UNL1        0.2626
     23 H          17.0194   69.6399   -9.1968 H       1  UNL1        0.1734
     24 O          22.6480   72.2580   -0.2784 O.3     1  UNL1       -0.2703
     25 P          22.2320   71.1392    0.8113 P.3     1  UNL1        0.2208
     26 O          23.5689   70.2391    0.9481 O.3     1  UNL1       -0.4371
     27 O          20.9959   70.3633    0.4564 O.2     1  UNL1       -0.5170
     28 O          22.1365   71.9433    2.2071 O.3     1  UNL1       -0.2858
     29 O          21.0036   74.0203    2.2542 O.3     1  UNL1       -0.3226
     30 O          23.1613   74.1243    5.8057 O.3     1  UNL1       -0.3794
     31 O          24.3708   73.0766    3.3673 O.3     1  UNL1       -0.3775
     32 O          21.1939   75.6501    4.6093 O.3     1  UNL1       -0.3792
     33 C          22.4163   73.5698    4.7250 C.3     1  UNL1        0.1718
     34 C          23.1463   73.8022    3.3978 C.3     1  UNL1        0.1968
     35 C          21.0351   74.2296    4.6858 C.3     1  UNL1        0.1723
     36 C          22.2748   73.3635    2.2145 C.3     1  UNL1        0.2706
     37 C          20.2737   73.7531    3.4507 C.3     1  UNL1        0.1830
     38 H          22.6619   73.9563    6.6230 H       1  UNL1        0.2105
     39 H          24.7912   73.2466    2.5076 H       1  UNL1        0.2106
     40 H          21.4872   75.8802    3.7114 H       1  UNL1        0.2106
     41 O          18.6834   74.6753    1.9932 O.co2   1  UNL1       -0.5466
     42 O          18.2530   74.8226    4.2271 O.co2   1  UNL1       -0.5466
     43 C          18.9696   74.4700    3.3015 C.2     1  UNL1        0.0799
@<TRIPOS>UNITY_ATOM_ATTR
41 1
charge -1
@<TRIPOS>BOND
     1     1     4    1
     2     1    24    1
     3     1     2    1
     4     1     3    2
     5    25    28    1
     6    25    24    1
     7    25    26    1
     8    25    27    2
     9     6    11    1
    10     6    12    1
    11    29    36    1
    12    29    37    1
    13     7     9    1
    14     7    13    1
    15     8    10    1
    16     8    14    1
    17     4     5    1
    18    28    36    1
    19    30    33    1
    20    30    38    1
    21    31    34    1
    22    31    39    1
    23    32    35    1
    24    32    40    1
    25    41    43   ar
    26    15    19    2
    27    42    43   ar
    28    16    22    2
    29    17    12    1
    30    17    19   ar
    31    17    20   ar
    32    18    19   ar
    33    18    22   ar
    34    18    23    1
    35     9    10    1
    36     9    11    1
    37    10    12    1
    38    11     5    1
    39    33    34    1
    40    33    35    1
    41    34    36    1
    42    35    37    1
    43    37    43    1
    44    20    21   ar
    45    21    22   ar
@<TRIPOS>MOLECULE
UDP-glaA
 43 45 0 0 0
SMALL
GASTEIGER

@<TRIPOS>ATOM
      1 P          22.8807   73.3786   -4.7227 P.3     1  UNL1        0.2189
      2 O          24.0179   72.2959   -4.3331 O.3     1  UNL1       -0.4371
      3 O          23.3992   74.6545   -5.3188 O.2     1  UNL1       -0.5170
      4 O          22.0132   73.5377   -3.3671 O.3     1  UNL1       -0.3112
      5 C          22.6446   73.2793   -2.1246 C.3     1  UNL1        0.1811
      6 O          23.3226   71.3451   -0.8701 O.3     1  UNL1       -0.3308
      7 O          20.4098   70.6476   -0.7282 O.3     1  UNL1       -0.3794
      8 O          20.8824   71.7336    1.7280 O.3     1  UNL1       -0.3779
      9 C          21.0341   71.9307   -0.6905 C.3     1  UNL1        0.1713
     10 C          21.6969   72.1530    0.6526 C.3     1  UNL1        0.1895
     11 C          22.2291   71.8996   -1.6342 C.3     1  UNL1        0.1764
     12 C          22.9630   71.3238    0.5211 C.3     1  UNL1        0.2383
     13 H          20.0338   70.5343   -1.6178 H       1  UNL1        0.2105
     14 H          20.0498   72.2340    1.6770 H       1  UNL1        0.2106
     15 O          24.8053   69.7545    1.9766 O.2     1  UNL1       -0.2464
     16 O          27.0916   73.4755    3.4481 O.2     1  UNL1       -0.2670
     17 N          24.0496   71.8560    1.2927 N.ar    1  UNL1       -0.2551
     18 N          25.9423   71.6085    2.7088 N.ar    1  UNL1       -0.2743
     19 C          24.9175   70.9816    1.9876 C.ar    1  UNL1        0.3323
     20 C          24.2467   73.2310    1.3557 C.ar    1  UNL1        0.0869
     21 C          25.2287   73.8133    2.0474 C.ar    1  UNL1        0.0795
     22 C          26.1783   72.9713    2.8018 C.ar    1  UNL1        0.2626
     23 H          26.5781   70.9994    3.2167 H       1  UNL1        0.1734
     24 O          21.8941   72.5363   -5.6883 O.3     1  UNL1       -0.2703
     25 P          20.9282   73.0134   -6.8933 P.3     1  UNL1        0.2208
     26 O          21.5150   72.2207   -8.1753 O.3     1  UNL1       -0.4371
     27 O          20.8508   74.5031   -7.0677 O.2     1  UNL1       -0.5170
     28 O          19.5117   72.3035   -6.5874 O.3     1  UNL1       -0.2858
     29 O          18.9604   70.2237   -5.6026 O.3     1  UNL1       -0.3226
     30 O          16.0041   70.6279   -8.4968 O.3     1  UNL1       -0.3794
     31 O          18.7606   71.3818   -9.0792 O.3     1  UNL1       -0.3775
     32 O          16.5317   68.9151   -6.3950 O.3     1  UNL1       -0.3792
     33 C          16.9463   71.0212   -7.5029 C.3     1  UNL1        0.1718
     34 C          18.3667   70.6374   -7.9314 C.3     1  UNL1        0.1968
     35 C          16.5922   70.3295   -6.1836 C.3     1  UNL1        0.1723
     36 C          19.3656   70.8997   -6.7975 C.3     1  UNL1        0.2706
     37 C          17.6705   70.6252   -5.1435 C.3     1  UNL1        0.1830
     38 H          15.1211   70.8877   -8.1831 H       1  UNL1        0.2105
     39 H          19.6665   71.1126   -9.3067 H       1  UNL1        0.2106
     40 H          17.4385   68.5784   -6.4934 H       1  UNL1        0.2106
     41 O          18.4609   70.0425   -3.0129 O.co2   1  UNL1       -0.5466
     42 O          16.4491   69.1773   -3.6464 O.co2   1  UNL1       -0.5466
     43 C          17.4333   69.8645   -3.8778 C.2     1  UNL1        0.0799
@<TRIPOS>UNITY_ATOM_ATTR
41 1
charge -1
@<TRIPOS>BOND
     1     1     4    1
     2     1    24    1
     3     1     2    1
     4     1     3    2
     5    25    28    1
     6    25    24    1
     7    25    26    1
     8    25    27    2
     9     6    11    1
    10     6    12    1
    11    29    36    1
    12    29    37    1
    13     7     9    1
    14     7    13    1
    15     8    10    1
    16     8    14    1
    17     4     5    1
    18    28    36    1
    19    30    33    1
    20    30    38    1
    21    31    34    1
    22    31    39    1
    23    32    35    1
    24    32    40    1
    25    41    43   ar
    26    15    19    2
    27    42    43   ar
    28    16    22    2
    29    17    12    1
    30    17    19   ar
    31    17    20   ar
    32    18    19   ar
    33    18    22   ar
    34    18    23    1
    35     9    10    1
    36     9    11    1
    37    10    12    1
    38    11     5    1
    39    33    34    1
    40    33    35    1
    41    34    36    1
    42    35    37    1
    43    37    43    1
    44    20    21   ar
    45    21    22   ar
@<TRIPOS>MOLECULE
UDP-glaA
 43 45 0 0 0
SMALL
GASTEIGER

@<TRIPOS>ATOM
      1 P          21.9037   72.4554   -5.7648 P.3     1  UNL1        0.2189
      2 O          21.2687   73.8761   -5.3224 O.3     1  UNL1       -0.4371
      3 O          23.0889   72.5496   -6.6806 O.2     1  UNL1       -0.5170
      4 O          20.6392   71.6239   -6.3350 O.3     1  UNL1       -0.3112
      5 C          20.1041   71.9854   -7.5968 C.3     1  UNL1        0.1811
      6 O          18.8944   69.9535   -7.1695 O.3     1  UNL1       -0.3308
      7 O          18.1161   70.0284  -10.0643 O.3     1  UNL1       -0.3794
      8 O          15.8824   70.9792   -8.8223 O.3     1  UNL1       -0.3779
      9 C          18.2883   71.1086   -9.1471 C.3     1  UNL1        0.1713
     10 C          17.1260   71.1655   -8.1785 C.3     1  UNL1        0.1895
     11 C          19.4525   70.7631   -8.2279 C.3     1  UNL1        0.1764
     12 C          17.4606   70.0379   -7.2170 C.3     1  UNL1        0.2383
     13 H          18.9010   70.0073  -10.6379 H       1  UNL1        0.2105
     14 H          15.7939   71.6760   -9.4952 H       1  UNL1        0.2106
     15 O          16.3123   68.0624   -5.5575 O.2     1  UNL1       -0.2464
     16 O          15.5822   71.0844   -2.1555 O.2     1  UNL1       -0.2670
     17 N          16.9627   70.2804   -5.8932 N.ar    1  UNL1       -0.2551
     18 N          15.9490   69.5686   -3.8647 N.ar    1  UNL1       -0.2743
     19 C          16.4040   69.2193   -5.1430 C.ar    1  UNL1        0.3323
     20 C          17.0306   71.5588   -5.3505 C.ar    1  UNL1        0.0869
     21 C          16.5928   71.8757   -4.1300 C.ar    1  UNL1        0.0795
     22 C          15.9947   70.8256   -3.2820 C.ar    1  UNL1        0.2626
     23 H          15.5429   68.8217   -3.3076 H       1  UNL1        0.1734
     24 O          22.2028   71.7354   -4.3480 O.3     1  UNL1       -0.2703
     25 P          23.4263   71.9115   -3.3066 P.3     1  UNL1        0.2208
     26 O          24.2070   73.2122   -3.8678 O.3     1  UNL1       -0.4371
     27 O          24.2865   70.6898   -3.1545 O.2     1  UNL1       -0.5170
     28 O          22.7305   72.4114   -1.9391 O.3     1  UNL1       -0.2858
     29 O          22.8168   70.9002   -0.1202 O.3     1  UNL1       -0.3226
     30 O          20.0642   73.7142    1.2153 O.3     1  UNL1       -0.3794
     31 O          20.0245   72.8011   -1.5543 O.3     1  UNL1       -0.3775
     32 O          21.4043   71.5519    2.2919 O.3     1  UNL1       -0.3792
     33 C          21.2034   73.1963    0.5339 C.3     1  UNL1        0.1718
     34 C          20.7747   72.1711   -0.5213 C.3     1  UNL1        0.1968
     35 C          22.1349   72.5383    1.5556 C.3     1  UNL1        0.1723
     36 C          21.9984   71.4836   -1.1394 C.3     1  UNL1        0.2706
     37 C          23.2908   71.8534    0.8297 C.3     1  UNL1        0.1830
     38 H          20.3825   74.3554    1.8735 H       1  UNL1        0.2105
     39 H          19.7841   72.1169   -2.2014 H       1  UNL1        0.2106
     40 H          21.2580   70.7823    1.7162 H       1  UNL1        0.2106
     41 O          25.2396   70.5846    1.1398 O.co2   1  UNL1       -0.5466
     42 O          23.9260   70.9338    2.9700 O.co2   1  UNL1       -0.5466
     43 C          24.1560   71.0872    1.7792 C.2     1  UNL1        0.0799
@<TRIPOS>UNITY_ATOM_ATTR
41 1
charge -1
@<TRIPOS>BOND
     1     1     4    1
     2     1    24    1
     3     1     2    1
     4     1     3    2
     5    25    28    1
     6    25    24    1
     7    25    26    1
     8    25    27    2
     9     6    11    1
    10     6    12    1
    11    29    36    1
    12    29    37    1
    13     7     9    1
    14     7    13    1
    15     8    10    1
    16     8    14    1
    17     4     5    1
    18    28    36    1
    19    30    33    1
    20    30    38    1
    21    31    34    1
    22    31    39    1
    23    32    35    1
    24    32    40    1
    25    41    43   ar
    26    15    19    2
    27    42    43   ar
    28    16    22    2
    29    17    12    1
    30    17    19   ar
    31    17    20   ar
    32    18    19   ar
    33    18    22   ar
    34    18    23    1
    35     9    10    1
    36     9    11    1
    37    10    12    1
    38    11     5    1
    39    33    34    1
    40    33    35    1
    41    34    36    1
    42    35    37    1
    43    37    43    1
    44    20    21   ar
    45    21    22   ar
@<TRIPOS>MOLECULE
UDP-glaA
 43 45 0 0 0
SMALL
GASTEIGER

@<TRIPOS>ATOM
      1 P          21.4716   71.2537   -2.6341 P.3     1  UNL1        0.2189
      2 O          22.0134   69.9643   -3.4473 O.3     1  UNL1       -0.4371
      3 O          22.1768   71.5269   -1.3379 O.2     1  UNL1       -0.5170
      4 O          19.8770   71.0057   -2.5280 O.3     1  UNL1       -0.3112
      5 C          19.2477   70.2104   -3.5184 C.3     1  UNL1        0.1811
      6 O          17.6307   71.3529   -4.8800 O.3     1  UNL1       -0.3308
      7 O          15.5432   69.9029   -3.2890 O.3     1  UNL1       -0.3794
      8 O          15.6521   68.4491   -5.5935 O.3     1  UNL1       -0.3779
      9 C          16.8282   69.4516   -3.7166 C.3     1  UNL1        0.1713
     10 C          16.8126   69.1523   -5.2008 C.3     1  UNL1        0.1895
     11 C          17.7897   70.6302   -3.6392 C.3     1  UNL1        0.1764
     12 C          16.8840   70.5447   -5.8044 C.3     1  UNL1        0.2383
     13 H          15.6118   70.1189   -2.3434 H       1  UNL1        0.2105
     14 H          15.6247   67.6214   -5.0832 H       1  UNL1        0.2106
     15 O          15.5547   70.6010   -8.2954 O.2     1  UNL1       -0.2464
     16 O          19.5314   70.5879  -10.6244 O.2     1  UNL1       -0.2670
     17 N          17.5469   70.5571   -7.0771 N.ar    1  UNL1       -0.2551
     18 N          17.5358   70.5939   -9.4535 N.ar    1  UNL1       -0.2743
     19 C          16.7866   70.5847   -8.2695 C.ar    1  UNL1        0.3323
     20 C          18.9361   70.5419   -7.1352 C.ar    1  UNL1        0.0869
     21 C          19.6357   70.5515   -8.2719 C.ar    1  UNL1        0.0795
     22 C          18.9178   70.5791   -9.5617 C.ar    1  UNL1        0.2626
     23 H          17.0101   70.6130  -10.3232 H       1  UNL1        0.1734
     24 O          21.5823   72.4427   -3.7247 O.3     1  UNL1       -0.2703
     25 P          22.7586   72.8186   -4.7676 P.3     1  UNL1        0.2208
     26 O          22.4351   71.8815   -6.0455 O.3     1  UNL1       -0.4371
     27 O          24.1461   72.6570   -4.2156 O.2     1  UNL1       -0.5170
     28 O          22.4068   74.3149   -5.2588 O.3     1  UNL1       -0.2858
     29 O          20.8148   75.9020   -4.5198 O.3     1  UNL1       -0.3226
     30 O          20.8472   76.5480   -8.6260 O.3     1  UNL1       -0.3794
     31 O          20.9444   73.8383   -7.5516 O.3     1  UNL1       -0.3775
     32 O          19.7465   77.7781   -6.4112 O.3     1  UNL1       -0.3792
     33 C          21.3503   76.2245   -7.3327 C.3     1  UNL1        0.1718
     34 C          20.6345   74.9900   -6.7742 C.3     1  UNL1        0.1968
     35 C          21.1328   77.4215   -6.4030 C.3     1  UNL1        0.1723
     36 C          21.0449   74.7365   -5.3183 C.3     1  UNL1        0.2706
     37 C          21.5349   77.0449   -4.9788 C.3     1  UNL1        0.1830
     38 H          21.3258   77.3347   -8.9386 H       1  UNL1        0.2105
     39 H          20.4780   73.0830   -7.1558 H       1  UNL1        0.2106
     40 H          19.2532   77.1119   -5.9033 H       1  UNL1        0.2106
     41 O          19.9213   78.0777   -3.6248 O.co2   1  UNL1       -0.5466
     42 O          22.0140   78.9819   -3.6192 O.co2   1  UNL1       -0.5466
     43 C          21.2179   78.1417   -4.0125 C.2     1  UNL1        0.0799
@<TRIPOS>UNITY_ATOM_ATTR
41 1
charge -1
@<TRIPOS>BOND
     1     1     4    1
     2     1    24    1
     3     1     2    1
     4     1     3    2
     5    25    28    1
     6    25    24    1
     7    25    26    1
     8    25    27    2
     9     6    11    1
    10     6    12    1
    11    29    36    1
    12    29    37    1
    13     7     9    1
    14     7    13    1
    15     8    10    1
    16     8    14    1
    17     4     5    1
    18    28    36    1
    19    30    33    1
    20    30    38    1
    21    31    34    1
    22    31    39    1
    23    32    35    1
    24    32    40    1
    25    41    43   ar
    26    15    19    2
    27    42    43   ar
    28    16    22    2
    29    17    12    1
    30    17    19   ar
    31    17    20   ar
    32    18    19   ar
    33    18    22   ar
    34    18    23    1
    35     9    10    1
    36     9    11    1
    37    10    12    1
    38    11     5    1
    39    33    34    1
    40    33    35    1
    41    34    36    1
    42    35    37    1
    43    37    43    1
    44    20    21   ar
    45    21    22   ar
@<TRIPOS>MOLECULE
UDP-glaA
 43 45 0 0 0
SMALL
GASTEIGER

@<TRIPOS>ATOM
      1 P          23.0231   72.2179   -3.6701 P.3     1  UNL1        0.2189
      2 O          24.2454   72.9364   -4.4494 O.3     1  UNL1       -0.4371
      3 O          23.3933   70.9663   -2.9294 O.2     1  UNL1       -0.5170
      4 O          21.8818   72.0522   -4.8039 O.3     1  UNL1       -0.3112
      5 C          20.7212   72.8616   -4.7202 C.3     1  UNL1        0.1811
      6 O          19.7699   72.2482   -6.8399 O.3     1  UNL1       -0.3308
      7 O          19.4309   75.1874   -7.3271 O.3     1  UNL1       -0.3794
      8 O          16.9223   74.4127   -6.5908 O.3     1  UNL1       -0.3779
      9 C          19.3050   74.4534   -6.1093 C.3     1  UNL1        0.1713
     10 C          18.0150   73.6606   -6.1050 C.3     1  UNL1        0.1895
     11 C          20.3563   73.3513   -6.1143 C.3     1  UNL1        0.1764
     12 C          18.3625   72.4872   -7.0052 C.3     1  UNL1        0.2383
     13 H          20.2875   75.6470   -7.3012 H       1  UNL1        0.2105
     14 H          16.8350   75.2001   -6.0264 H       1  UNL1        0.2106
     15 O          15.8880   71.7294   -8.1358 O.2     1  UNL1       -0.2464
     16 O          15.6891   67.8957   -5.5859 O.2     1  UNL1       -0.2670
     17 N          17.6422   71.2962   -6.6558 N.ar    1  UNL1       -0.2551
     18 N          15.7903   69.8212   -6.8649 N.ar    1  UNL1       -0.2743
     19 C          16.4070   71.0081   -7.2819 C.ar    1  UNL1        0.3323
     20 C          18.1604   70.4275   -5.7017 C.ar    1  UNL1        0.0869
     21 C          17.5606   69.2994   -5.3152 C.ar    1  UNL1        0.0795
     22 C          16.2665   68.9258   -5.9197 C.ar    1  UNL1        0.2626
     23 H          14.9008   69.5941   -7.3012 H       1  UNL1        0.1734
     24 O          22.4400   73.4042   -2.7386 O.3     1  UNL1       -0.2703
     25 P          23.1864   74.4294   -1.7363 P.3     1  UNL1        0.2208
     26 O          22.3578   75.8052   -1.9281 O.3     1  UNL1       -0.4371
     27 O          24.6639   74.5572   -1.9740 O.2     1  UNL1       -0.5170
     28 O          22.7908   73.9171   -0.2582 O.3     1  UNL1       -0.2858
     29 O          24.2294   72.3703    0.8082 O.3     1  UNL1       -0.3226
     30 O          20.7846   72.0912    3.1180 O.3     1  UNL1       -0.3794
     31 O          20.6089   72.2924    0.2137 O.3     1  UNL1       -0.3775
     32 O          23.3767   71.1474    3.2609 O.3     1  UNL1       -0.3792
     33 C          21.7863   72.6920    2.3019 C.3     1  UNL1        0.1718
     34 C          21.8172   72.0309    0.9198 C.3     1  UNL1        0.1968
     35 C          23.1455   72.5335    2.9889 C.3     1  UNL1        0.1723
     36 C          23.0014   72.5508    0.0953 C.3     1  UNL1        0.2706
     37 C          24.2498   73.0439    2.0657 C.3     1  UNL1        0.1830
     38 H          20.8027   72.5380    3.9814 H       1  UNL1        0.2105
     39 H          20.6785   71.8636   -0.6558 H       1  UNL1        0.2106
     40 H          23.5870   70.6992    2.4242 H       1  UNL1        0.2106
     41 O          26.0404   71.5489    2.3152 O.co2   1  UNL1       -0.5466
     42 O          26.2432   73.5877    3.3148 O.co2   1  UNL1       -0.5466
     43 C          25.6061   72.7898    2.6425 C.2     1  UNL1        0.0799
@<TRIPOS>UNITY_ATOM_ATTR
41 1
charge -1
@<TRIPOS>BOND
     1     1     4    1
     2     1    24    1
     3     1     2    1
     4     1     3    2
     5    25    28    1
     6    25    24    1
     7    25    26    1
     8    25    27    2
     9     6    11    1
    10     6    12    1
    11    29    36    1
    12    29    37    1
    13     7     9    1
    14     7    13    1
    15     8    10    1
    16     8    14    1
    17     4     5    1
    18    28    36    1
    19    30    33    1
    20    30    38    1
    21    31    34    1
    22    31    39    1
    23    32    35    1
    24    32    40    1
    25    41    43   ar
    26    15    19    2
    27    42    43   ar
    28    16    22    2
    29    17    12    1
    30    17    19   ar
    31    17    20   ar
    32    18    19   ar
    33    18    22   ar
    34    18    23    1
    35     9    10    1
    36     9    11    1
    37    10    12    1
    38    11     5    1
    39    33    34    1
    40    33    35    1
    41    34    36    1
    42    35    37    1
    43    37    43    1
    44    20    21   ar
    45    21    22   ar
@<TRIPOS>MOLECULE
UDP-glaA
 43 45 0 0 0
SMALL
GASTEIGER

@<TRIPOS>ATOM
      1 P          23.0325   72.3448   -3.5983 P.3     1  UNL1        0.2189
      2 O          22.9976   70.7864   -3.1653 O.3     1  UNL1       -0.4371
      3 O          24.2427   72.7563   -4.3846 O.2     1  UNL1       -0.5170
      4 O          22.7919   73.1402   -2.2108 O.3     1  UNL1       -0.3112
      5 C          21.9050   74.2460   -2.2090 C.3     1  UNL1        0.1811
      6 O          21.0723   72.7579   -0.5159 O.3     1  UNL1       -0.3308
      7 O          19.1975   74.9714    0.2433 O.3     1  UNL1       -0.3794
      8 O          21.1466   75.1649    2.1404 O.3     1  UNL1       -0.3779
      9 C          20.5479   75.0482   -0.2130 C.3     1  UNL1        0.1713
     10 C          21.4984   74.6206    0.8852 C.3     1  UNL1        0.1895
     11 C          20.7541   73.9573   -1.2556 C.3     1  UNL1        0.1764
     12 C          21.3652   73.1077    0.8468 C.3     1  UNL1        0.2383
     13 H          18.6249   75.2161   -0.5036 H       1  UNL1        0.2105
     14 H          21.1503   76.1335    2.0508 H       1  UNL1        0.2106
     15 O          21.5991   70.3167    1.2091 O.2     1  UNL1       -0.2464
     16 O          26.0365   70.6596    2.4052 O.2     1  UNL1       -0.2670
     17 N          22.5696   72.4408    1.2518 N.ar    1  UNL1       -0.2551
     18 N          23.8084   70.4894    1.8050 N.ar    1  UNL1       -0.2743
     19 C          22.5811   71.0348    1.4058 C.ar    1  UNL1        0.3323
     20 C          23.7233   73.1788    1.4923 C.ar    1  UNL1        0.0869
     21 C          24.8859   72.6440    1.8718 C.ar    1  UNL1        0.0795
     22 C          24.9825   71.1824    2.0563 C.ar    1  UNL1        0.2626
     23 H          23.8400   69.4803    1.9226 H       1  UNL1        0.1734
     24 O          21.6272   72.5366   -4.3752 O.3     1  UNL1       -0.2703
     25 P          20.3903   71.5198   -4.5957 P.3     1  UNL1        0.2208
     26 O          19.9699   71.1143   -3.0874 O.3     1  UNL1       -0.4371
     27 O          20.7039   70.3523   -5.4869 O.2     1  UNL1       -0.5170
     28 O          19.1823   72.4528   -5.1195 O.3     1  UNL1       -0.2858
     29 O          18.7344   71.9917   -7.3968 O.3     1  UNL1       -0.3226
     30 O          16.1217   75.1284   -6.6130 O.3     1  UNL1       -0.3794
     31 O          18.8356   75.1586   -5.5453 O.3     1  UNL1       -0.3775
     32 O          16.5669   73.3603   -8.6881 O.3     1  UNL1       -0.3792
     33 C          16.8919   73.9546   -6.3694 C.3     1  UNL1        0.1718
     34 C          18.3855   74.2495   -6.5443 C.3     1  UNL1        0.1968
     35 C          16.4551   72.8632   -7.3504 C.3     1  UNL1        0.1723
     36 C          19.2084   72.9584   -6.4536 C.3     1  UNL1        0.2706
     37 C          17.3642   71.6452   -7.2013 C.3     1  UNL1        0.1830
     38 H          15.1853   74.8948   -6.4937 H       1  UNL1        0.2105
     39 H          19.7851   75.3072   -5.6903 H       1  UNL1        0.2106
     40 H          17.5088   73.3971   -8.9262 H       1  UNL1        0.2106
     41 O          15.7215   70.5271   -8.4483 O.co2   1  UNL1       -0.5466
     42 O          17.8888   69.9138   -8.8003 O.co2   1  UNL1       -0.5466
     43 C          17.0564   70.6034   -8.2293 C.2     1  UNL1        0.0799
@<TRIPOS>UNITY_ATOM_ATTR
41 1
charge -1
@<TRIPOS>BOND
     1     1     4    1
     2     1    24    1
     3     1     2    1
     4     1     3    2
     5    25    28    1
     6    25    24    1
     7    25    26    1
     8    25    27    2
     9     6    11    1
    10     6    12    1
    11    29    36    1
    12    29    37    1
    13     7     9    1
    14     7    13    1
    15     8    10    1
    16     8    14    1
    17     4     5    1
    18    28    36    1
    19    30    33    1
    20    30    38    1
    21    31    34    1
    22    31    39    1
    23    32    35    1
    24    32    40    1
    25    41    43   ar
    26    15    19    2
    27    42    43   ar
    28    16    22    2
    29    17    12    1
    30    17    19   ar
    31    17    20   ar
    32    18    19   ar
    33    18    22   ar
    34    18    23    1
    35     9    10    1
    36     9    11    1
    37    10    12    1
    38    11     5    1
    39    33    34    1
    40    33    35    1
    41    34    36    1
    42    35    37    1
    43    37    43    1
    44    20    21   ar
    45    21    22   ar
@<TRIPOS>MOLECULE
UDP-glaA
 43 45 0 0 0
SMALL
GASTEIGER

@<TRIPOS>ATOM
      1 P          21.7026   71.5016   -2.3681 P.3     1  UNL1        0.2189
      2 O          22.3510   70.2302   -3.1300 O.3     1  UNL1       -0.4371
      3 O          22.3425   71.8465   -1.0552 O.2     1  UNL1       -0.5170
      4 O          20.1232   71.1582   -2.3116 O.3     1  UNL1       -0.3112
      5 C          19.5302   70.5118   -3.4250 C.3     1  UNL1        0.1811
      6 O          17.8179   71.5605   -4.7450 O.3     1  UNL1       -0.3308
      7 O          15.8513   70.1108   -3.0065 O.3     1  UNL1       -0.3794
      8 O          15.8933   68.5799   -5.2627 O.3     1  UNL1       -0.3779
      9 C          17.1272   69.6802   -3.4801 C.3     1  UNL1        0.1713
     10 C          17.0501   69.3283   -4.9507 C.3     1  UNL1        0.1895
     11 C          18.0565   70.8868   -3.4895 C.3     1  UNL1        0.1764
     12 C          17.0521   70.6998   -5.6042 C.3     1  UNL1        0.2383
     13 H          15.9583   70.3621   -2.0732 H       1  UNL1        0.2105
     14 H          15.9143   67.7704   -4.7238 H       1  UNL1        0.2106
     15 O          15.6354   70.2794   -8.0107 O.2     1  UNL1       -0.2464
     16 O          19.4647   70.6635  -10.5459 O.2     1  UNL1       -0.2670
     17 N          17.6534   70.6854   -6.9071 N.ar    1  UNL1       -0.2551
     18 N          17.5432   70.4704   -9.2715 N.ar    1  UNL1       -0.2743
     19 C          16.8530   70.4647   -8.0522 C.ar    1  UNL1        0.3323
     20 C          19.0225   70.8883   -7.0409 C.ar    1  UNL1        0.0869
     21 C          19.6657   70.8913   -8.2106 C.ar    1  UNL1        0.0795
     22 C          18.9032   70.6674   -9.4547 C.ar    1  UNL1        0.2626
     23 H          16.9880   70.3132  -10.1082 H       1  UNL1        0.1734
     24 O          21.7804   72.6704   -3.4829 O.3     1  UNL1       -0.2703
     25 P          22.9139   73.0122   -4.5834 P.3     1  UNL1        0.2208
     26 O          22.4760   72.1171   -5.8575 O.3     1  UNL1       -0.4371
     27 O          24.3204   72.7750   -4.1131 O.2     1  UNL1       -0.5170
     28 O          22.6070   74.5329   -5.0278 O.3     1  UNL1       -0.2858
     29 O          24.3504   75.6176   -6.2039 O.3     1  UNL1       -0.3226
     30 O          21.7813   78.7720   -5.3505 O.3     1  UNL1       -0.3794
     31 O          22.3093   76.7102   -3.3565 O.3     1  UNL1       -0.3775
     32 O          24.0519   78.3919   -6.8769 O.3     1  UNL1       -0.3792
     33 C          22.1863   77.4439   -5.6702 C.3     1  UNL1        0.1718
     34 C          23.0640   76.8693   -4.5532 C.3     1  UNL1        0.1968
     35 C          22.9648   77.4673   -6.9885 C.3     1  UNL1        0.1723
     36 C          23.6447   75.5102   -4.9632 C.3     1  UNL1        0.2706
     37 C          23.5292   76.0777   -7.2760 C.3     1  UNL1        0.1830
     38 H          21.2314   79.0957   -6.0843 H       1  UNL1        0.2105
     39 H          22.9023   76.3363   -2.6832 H       1  UNL1        0.2106
     40 H          24.7379   77.9955   -6.3135 H       1  UNL1        0.2106
     41 O          24.1082   77.1344   -9.2890 O.co2   1  UNL1       -0.5466
     42 O          25.2755   75.2583   -8.7281 O.co2   1  UNL1       -0.5466
     43 C          24.4058   76.0831   -8.4878 C.2     1  UNL1        0.0799
@<TRIPOS>UNITY_ATOM_ATTR
41 1
charge -1
@<TRIPOS>BOND
     1     1     4    1
     2     1    24    1
     3     1     2    1
     4     1     3    2
     5    25    28    1
     6    25    24    1
     7    25    26    1
     8    25    27    2
     9     6    11    1
    10     6    12    1
    11    29    36    1
    12    29    37    1
    13     7     9    1
    14     7    13    1
    15     8    10    1
    16     8    14    1
    17     4     5    1
    18    28    36    1
    19    30    33    1
    20    30    38    1
    21    31    34    1
    22    31    39    1
    23    32    35    1
    24    32    40    1
    25    41    43   ar
    26    15    19    2
    27    42    43   ar
    28    16    22    2
    29    17    12    1
    30    17    19   ar
    31    17    20   ar
    32    18    19   ar
    33    18    22   ar
    34    18    23    1
    35     9    10    1
    36     9    11    1
    37    10    12    1
    38    11     5    1
    39    33    34    1
    40    33    35    1
    41    34    36    1
    42    35    37    1
    43    37    43    1
    44    20    21   ar
    45    21    22   ar
@<TRIPOS>MOLECULE
UDP-glaA
 43 45 0 0 0
SMALL
GASTEIGER

@<TRIPOS>ATOM
      1 P          23.0981   72.7983   -3.6110 P.3     1  UNL1        0.2189
      2 O          22.6126   71.2800   -3.3346 O.3     1  UNL1       -0.4371
      3 O          24.4909   72.9285   -4.1545 O.2     1  UNL1       -0.5170
      4 O          22.8156   73.5586   -2.2119 O.3     1  UNL1       -0.3112
      5 C          21.8417   74.5882   -2.1850 C.3     1  UNL1        0.1811
      6 O          20.9980   72.8622   -0.7415 O.3     1  UNL1       -0.3308
      7 O          18.9648   74.8719    0.1631 O.3     1  UNL1       -0.3794
      8 O          20.7905   74.9191    2.1880 O.3     1  UNL1       -0.3779
      9 C          20.3324   75.0692   -0.1950 C.3     1  UNL1        0.1713
     10 C          21.2417   74.5532    0.9003 C.3     1  UNL1        0.1895
     11 C          20.6566   74.1282   -1.3479 C.3     1  UNL1        0.1764
     12 C          21.1941   73.0524    0.6694 C.3     1  UNL1        0.2383
     13 H          18.4225   75.1804   -0.5828 H       1  UNL1        0.2105
     14 H          20.7461   75.8903    2.2175 H       1  UNL1        0.2106
     15 O          21.4592   70.2644    1.0324 O.2     1  UNL1       -0.2464
     16 O          25.9031   70.6532    2.1897 O.2     1  UNL1       -0.2670
     17 N          22.4086   72.3981    1.0646 N.ar    1  UNL1       -0.2551
     18 N          23.6718   70.4599    1.6090 N.ar    1  UNL1       -0.2743
     19 C          22.4356   70.9925    1.2199 C.ar    1  UNL1        0.3323
     20 C          23.5568   73.1480    1.2943 C.ar    1  UNL1        0.0869
     21 C          24.7280   72.6253    1.6644 C.ar    1  UNL1        0.0795
     22 C          24.8409   71.1649    1.8495 C.ar    1  UNL1        0.2626
     23 H          23.7145   69.4513    1.7274 H       1  UNL1        0.1734
     24 O          21.9403   73.3783   -4.5797 O.3     1  UNL1       -0.2703
     25 P          21.5799   73.0437   -6.1194 P.3     1  UNL1        0.2208
     26 O          22.8956   72.2652   -6.6477 O.3     1  UNL1       -0.4371
     27 O          21.1995   74.2442   -6.9379 O.2     1  UNL1       -0.5170
     28 O          20.4387   71.9060   -6.0344 O.3     1  UNL1       -0.2858
     29 O          18.2025   72.0001   -6.8024 O.3     1  UNL1       -0.3226
     30 O          17.9024   69.4139   -3.5619 O.3     1  UNL1       -0.3794
     31 O          19.5876   71.7894   -3.4105 O.3     1  UNL1       -0.3775
     32 O          16.2514   70.2687   -5.6048 O.3     1  UNL1       -0.3792
     33 C          18.4797   70.0512   -4.6981 C.3     1  UNL1        0.1718
     34 C          18.6379   71.5542   -4.4448 C.3     1  UNL1        0.1968
     35 C          17.5746   69.8166   -5.9106 C.3     1  UNL1        0.1723
     36 C          19.0967   72.2744   -5.7189 C.3     1  UNL1        0.2706
     37 C          18.1011   70.6095   -7.1049 C.3     1  UNL1        0.1830
     38 H          17.8189   68.4671   -3.7675 H       1  UNL1        0.2105
     39 H          19.6608   72.7515   -3.2927 H       1  UNL1        0.2106
     40 H          16.2481   71.2409   -5.6106 H       1  UNL1        0.2106
     41 O          17.8223   70.0132   -9.3567 O.co2   1  UNL1       -0.5466
     42 O          15.9969   70.8366   -8.2671 O.co2   1  UNL1       -0.5466
     43 C          17.1759   70.5135   -8.2762 C.2     1  UNL1        0.0799
@<TRIPOS>UNITY_ATOM_ATTR
41 1
charge -1
@<TRIPOS>BOND
     1     1     4    1
     2     1    24    1
     3     1     2    1
     4     1     3    2
     5    25    28    1
     6    25    24    1
     7    25    26    1
     8    25    27    2
     9     6    11    1
    10     6    12    1
    11    29    36    1
    12    29    37    1
    13     7     9    1
    14     7    13    1
    15     8    10    1
    16     8    14    1
    17     4     5    1
    18    28    36    1
    19    30    33    1
    20    30    38    1
    21    31    34    1
    22    31    39    1
    23    32    35    1
    24    32    40    1
    25    41    43   ar
    26    15    19    2
    27    42    43   ar
    28    16    22    2
    29    17    12    1
    30    17    19   ar
    31    17    20   ar
    32    18    19   ar
    33    18    22   ar
    34    18    23    1
    35     9    10    1
    36     9    11    1
    37    10    12    1
    38    11     5    1
    39    33    34    1
    40    33    35    1
    41    34    36    1
    42    35    37    1
    43    37    43    1
    44    20    21   ar
    45    21    22   ar
@<TRIPOS>MOLECULE
UDP-glaA
 43 45 0 0 0
SMALL
GASTEIGER

@<TRIPOS>ATOM
      1 P          20.6973   73.3827   -2.8505 P.3     1  UNL1        0.2189
      2 O          20.1138   72.7889   -1.4633 O.3     1  UNL1       -0.4371
      3 O          20.6979   74.8802   -2.9474 O.2     1  UNL1       -0.5170
      4 O          19.8559   72.6048   -3.9918 O.3     1  UNL1       -0.3112
      5 C          19.1600   71.4231   -3.6333 C.3     1  UNL1        0.1811
      6 O          17.4509   72.1098   -5.1766 O.3     1  UNL1       -0.3308
      7 O          15.5082   70.7538   -3.3384 O.3     1  UNL1       -0.3794
      8 O          15.8152   68.9231   -5.3359 O.3     1  UNL1       -0.3779
      9 C          16.8421   70.3771   -3.6800 C.3     1  UNL1        0.1713
     10 C          16.8847   69.8108   -5.0836 C.3     1  UNL1        0.1895
     11 C          17.6670   71.6492   -3.8244 C.3     1  UNL1        0.1764
     12 C          16.8132   71.0678   -5.9336 C.3     1  UNL1        0.2383
     13 H          15.5366   71.1460   -2.4491 H       1  UNL1        0.2105
     14 H          15.8701   68.2052   -4.6818 H       1  UNL1        0.2106
     15 O          15.5432   70.3995   -8.3658 O.2     1  UNL1       -0.2464
     16 O          19.5212   70.5255  -10.6892 O.2     1  UNL1       -0.2670
     17 N          17.4925   70.9200   -7.1891 N.ar    1  UNL1       -0.2551
     18 N          17.5250   70.4622   -9.5211 N.ar    1  UNL1       -0.2743
     19 C          16.7619   70.5813   -8.3520 C.ar    1  UNL1        0.3323
     20 C          18.8681   71.1100   -7.2595 C.ar    1  UNL1        0.0869
     21 C          19.5812   70.9933   -8.3819 C.ar    1  UNL1        0.0795
     22 C          18.8945   70.6412   -9.6405 C.ar    1  UNL1        0.2626
     23 H          17.0208   70.2188  -10.3694 H       1  UNL1        0.1734
     24 O          22.1603   72.7008   -2.9497 O.3     1  UNL1       -0.2703
     25 P          22.6768   71.2316   -2.5168 P.3     1  UNL1        0.2208
     26 O          24.2054   71.2052   -3.0449 O.3     1  UNL1       -0.4371
     27 O          21.8252   70.1043   -3.0265 O.2     1  UNL1       -0.5170
     28 O          22.8011   71.2991   -0.9093 O.3     1  UNL1       -0.2858
     29 O          23.0536   73.4358    0.0757 O.3     1  UNL1       -0.3226
     30 O          24.0784   70.9051    3.2101 O.3     1  UNL1       -0.3794
     31 O          24.9760   70.3378    0.4938 O.3     1  UNL1       -0.3775
     32 O          23.6195   73.6094    2.8843 O.3     1  UNL1       -0.3792
     33 C          23.4020   71.3566    2.0402 C.3     1  UNL1        0.1718
     34 C          24.3991   71.5753    0.8972 C.3     1  UNL1        0.1968
     35 C          22.6777   72.6668    2.3614 C.3     1  UNL1        0.1723
     36 C          23.7085   72.2227   -0.3096 C.3     1  UNL1        0.2706
     37 C          22.0649   73.2406    1.0857 C.3     1  UNL1        0.1830
     38 H          23.4106   70.7827    3.9063 H       1  UNL1        0.2105
     39 H          25.5909   70.5247   -0.2354 H       1  UNL1        0.2106
     40 H          24.1748   73.9292    2.1531 H       1  UNL1        0.2106
     41 O          21.7382   75.4282    0.3038 O.co2   1  UNL1       -0.5466
     42 O          20.7958   74.8907    2.3088 O.co2   1  UNL1       -0.5466
     43 C          21.4578   74.5860    1.3274 C.2     1  UNL1        0.0799
@<TRIPOS>UNITY_ATOM_ATTR
41 1
charge -1
@<TRIPOS>BOND
     1     1     4    1
     2     1    24    1
     3     1     2    1
     4     1     3    2
     5    25    28    1
     6    25    24    1
     7    25    26    1
     8    25    27    2
     9     6    11    1
    10     6    12    1
    11    29    36    1
    12    29    37    1
    13     7     9    1
    14     7    13    1
    15     8    10    1
    16     8    14    1
    17     4     5    1
    18    28    36    1
    19    30    33    1
    20    30    38    1
    21    31    34    1
    22    31    39    1
    23    32    35    1
    24    32    40    1
    25    41    43   ar
    26    15    19    2
    27    42    43   ar
    28    16    22    2
    29    17    12    1
    30    17    19   ar
    31    17    20   ar
    32    18    19   ar
    33    18    22   ar
    34    18    23    1
    35     9    10    1
    36     9    11    1
    37    10    12    1
    38    11     5    1
    39    33    34    1
    40    33    35    1
    41    34    36    1
    42    35    37    1
    43    37    43    1
    44    20    21   ar
    45    21    22   ar
