@<TRIPOS>MOLECULE
UDP-glaA
 43 45 0 0 0
SMALL
GASTEIGER

@<TRIPOS>ATOM
      1 P          22.9641   71.3952   -2.3636 P.3     1  UNL1        0.2189
      2 O          22.7563   72.9990   -2.3178 O.3     1  UNL1       -0.4371
      3 O          24.2066   70.9378   -3.0700 O.2     1  UNL1       -0.5170
      4 O          21.5692   70.8386   -2.9636 O.3     1  UNL1       -0.3112
      5 C          20.9419   71.5658   -4.0061 C.3     1  UNL1        0.1811
      6 O          18.7744   72.0622   -4.9171 O.3     1  UNL1       -0.3308
      7 O          17.6505   70.7031   -2.4920 O.3     1  UNL1       -0.3794
      8 O          17.4177   68.7818   -4.4130 O.3     1  UNL1       -0.3779
      9 C          18.8217   70.3857   -3.2438 C.3     1  UNL1        0.1713
     10 C          18.4420   69.7432   -4.5613 C.3     1  UNL1        0.1895
     11 C          19.4568   71.6933   -3.6983 C.3     1  UNL1        0.1764
     12 C          18.0021   70.9432   -5.3826 C.3     1  UNL1        0.2383
     13 H          17.9408   71.1466   -1.6767 H       1  UNL1        0.2105
     14 H          17.7376   68.1070   -3.7897 H       1  UNL1        0.2106
     15 O          15.9879   70.3904   -7.2833 O.2     1  UNL1       -0.2464
     16 O          19.0302   70.2707  -10.7429 O.2     1  UNL1       -0.2670
     17 N          18.2394   70.7635   -6.7864 N.ar    1  UNL1       -0.2551
     18 N          17.5042   70.3306   -9.0047 N.ar    1  UNL1       -0.2743
     19 C          17.1584   70.4885   -7.6562 C.ar    1  UNL1        0.3323
     20 C          19.5324   70.8599   -7.2887 C.ar    1  UNL1        0.0869
     21 C          19.8458   70.7073   -8.5772 C.ar    1  UNL1        0.0795
     22 C          18.7752   70.4170   -9.5515 C.ar    1  UNL1        0.2626
     23 H          16.7431   70.1317   -9.6483 H       1  UNL1        0.1734
     24 O          22.8822   70.9746   -0.8043 O.3     1  UNL1       -0.2703
     25 P          21.8228   71.3771    0.3483 P.3     1  UNL1        0.2208
     26 O          21.6317   69.9995    1.1740 O.3     1  UNL1       -0.4371
     27 O          20.5447   71.9715   -0.1703 O.2     1  UNL1       -0.5170
     28 O          22.6494   72.3396    1.3454 O.3     1  UNL1       -0.2858
     29 O          24.1678   72.3165    3.1601 O.3     1  UNL1       -0.3226
     30 O          21.0165   74.5548    4.6896 O.3     1  UNL1       -0.3794
     31 O          20.5014   72.1826    3.0729 O.3     1  UNL1       -0.3775
     32 O          23.5842   73.9083    5.4763 O.3     1  UNL1       -0.3792
     33 C          21.9279   74.0398    3.7229 C.3     1  UNL1        0.1718
     34 C          21.7786   72.5193    3.6043 C.3     1  UNL1        0.1968
     35 C          23.3550   74.3944    4.1496 C.3     1  UNL1        0.1723
     36 C          22.8682   71.9357    2.6963 C.3     1  UNL1        0.2706
     37 C          24.3534   73.7305    3.2037 C.3     1  UNL1        0.1830
     38 H          21.1477   75.5173    4.7329 H       1  UNL1        0.2105
     39 H          20.4570   71.2138    3.0075 H       1  UNL1        0.2106
     40 H          23.6829   72.9418    5.4384 H       1  UNL1        0.2106
     41 O          26.6352   73.3705    2.7945 O.co2   1  UNL1       -0.5466
     42 O          26.0899   74.5509    4.6670 O.co2   1  UNL1       -0.5466
     43 C          25.7624   73.9429    3.6583 C.2     1  UNL1        0.0799
@<TRIPOS>UNITY_ATOM_ATTR
41 1
charge -1
@<TRIPOS>BOND
     1     1     4    1
     2     1    24    1
     3     1     2    1
     4     1     3    2
     5    25    28    1
     6    25    24    1
     7    25    26    1
     8    25    27    2
     9     6    11    1
    10     6    12    1
    11    29    36    1
    12    29    37    1
    13     7     9    1
    14     7    13    1
    15     8    10    1
    16     8    14    1
    17     4     5    1
    18    28    36    1
    19    30    33    1
    20    30    38    1
    21    31    34    1
    22    31    39    1
    23    32    35    1
    24    32    40    1
    25    41    43   ar
    26    15    19    2
    27    42    43   ar
    28    16    22    2
    29    17    12    1
    30    17    19   ar
    31    17    20   ar
    32    18    19   ar
    33    18    22   ar
    34    18    23    1
    35     9    10    1
    36     9    11    1
    37    10    12    1
    38    11     5    1
    39    33    34    1
    40    33    35    1
    41    34    36    1
    42    35    37    1
    43    37    43    1
    44    20    21   ar
    45    21    22   ar
@<TRIPOS>MOLECULE
UDP-glaA
 43 45 0 0 0
SMALL
GASTEIGER

@<TRIPOS>ATOM
      1 P          23.0647   71.5277   -2.6968 P.3     1  UNL1        0.2189
      2 O          23.1726   73.1174   -2.4165 O.3     1  UNL1       -0.4371
      3 O          24.3302   70.8832   -3.1818 O.2     1  UNL1       -0.5170
      4 O          21.7857   71.3908   -3.6770 O.3     1  UNL1       -0.3112
      5 C          21.5804   72.3854   -4.6658 C.3     1  UNL1        0.1811
      6 O          20.5583   70.5336   -5.8063 O.3     1  UNL1       -0.3308
      7 O          20.9309   72.1199   -8.3234 O.3     1  UNL1       -0.3794
      8 O          18.2949   72.5204   -7.7519 O.3     1  UNL1       -0.3779
      9 C          20.6091   72.5741   -7.0089 C.3     1  UNL1        0.1713
     10 C          19.1691   72.2442   -6.6772 C.3     1  UNL1        0.1895
     11 C          21.3716   71.7095   -6.0135 C.3     1  UNL1        0.1764
     12 C          19.2505   70.7614   -6.3568 C.3     1  UNL1        0.2383
     13 H          21.8707   72.3173   -8.4763 H       1  UNL1        0.2105
     14 H          18.3828   73.4653   -7.9654 H       1  UNL1        0.2106
     15 O          16.6697   69.8301   -7.0256 O.2     1  UNL1       -0.2464
     16 O          15.5430   69.2211   -2.5986 O.2     1  UNL1       -0.2670
     17 N          18.2629   70.3524   -5.3995 N.ar    1  UNL1       -0.2551
     18 N          16.1102   69.5279   -4.8207 N.ar    1  UNL1       -0.2743
     19 C          16.9966   69.9012   -5.8396 C.ar    1  UNL1        0.3323
     20 C          18.5531   70.4006   -4.0405 C.ar    1  UNL1        0.0869
     21 C          17.6973   70.0408   -3.0813 C.ar    1  UNL1        0.0795
     22 C          16.3532   69.5589   -3.4562 C.ar    1  UNL1        0.2626
     23 H          15.1935   69.2009   -5.1137 H       1  UNL1        0.1734
     24 O          22.5096   70.9491   -1.2925 O.3     1  UNL1       -0.2703
     25 P          21.3643   71.5036   -0.2958 P.3     1  UNL1        0.2208
     26 O          21.1357   70.2727    0.7282 O.3     1  UNL1       -0.4371
     27 O          20.1176   71.9722   -0.9901 O.2     1  UNL1       -0.5170
     28 O          22.1024   72.6362    0.5854 O.3     1  UNL1       -0.2858
     29 O          23.4326   71.8780    2.3895 O.3     1  UNL1       -0.3226
     30 O          23.1164   75.9448    3.1895 O.3     1  UNL1       -0.3794
     31 O          20.8103   74.4402    2.2282 O.3     1  UNL1       -0.3775
     32 O          24.5508   73.8090    4.1949 O.3     1  UNL1       -0.3792
     33 C          23.2133   74.7510    2.4177 C.3     1  UNL1        0.1718
     34 C          22.0138   73.8379    2.6928 C.3     1  UNL1        0.1968
     35 C          24.5144   74.0305    2.7812 C.3     1  UNL1        0.1723
     36 C          22.1940   72.4810    2.0009 C.3     1  UNL1        0.2706
     37 C          24.5689   72.6798    2.0707 C.3     1  UNL1        0.1830
     38 H          23.8955   76.4899    2.9858 H       1  UNL1        0.2105
     39 H          20.0825   73.8236    2.4149 H       1  UNL1        0.2106
     40 H          23.9274   73.0953    4.4119 H       1  UNL1        0.2106
     41 O          26.7623   72.7033    2.9025 O.co2   1  UNL1       -0.5466
     42 O          25.8310   70.6642    2.4881 O.co2   1  UNL1       -0.5466
     43 C          25.7617   71.8847    2.4974 C.2     1  UNL1        0.0799
@<TRIPOS>UNITY_ATOM_ATTR
41 1
charge -1
@<TRIPOS>BOND
     1     1     4    1
     2     1    24    1
     3     1     2    1
     4     1     3    2
     5    25    28    1
     6    25    24    1
     7    25    26    1
     8    25    27    2
     9     6    11    1
    10     6    12    1
    11    29    36    1
    12    29    37    1
    13     7     9    1
    14     7    13    1
    15     8    10    1
    16     8    14    1
    17     4     5    1
    18    28    36    1
    19    30    33    1
    20    30    38    1
    21    31    34    1
    22    31    39    1
    23    32    35    1
    24    32    40    1
    25    41    43   ar
    26    15    19    2
    27    42    43   ar
    28    16    22    2
    29    17    12    1
    30    17    19   ar
    31    17    20   ar
    32    18    19   ar
    33    18    22   ar
    34    18    23    1
    35     9    10    1
    36     9    11    1
    37    10    12    1
    38    11     5    1
    39    33    34    1
    40    33    35    1
    41    34    36    1
    42    35    37    1
    43    37    43    1
    44    20    21   ar
    45    21    22   ar
@<TRIPOS>MOLECULE
UDP-glaA
 43 45 0 0 0
SMALL
GASTEIGER

@<TRIPOS>ATOM
      1 P          20.0497   72.5559   -1.9269 P.3     1  UNL1        0.2189
      2 O          18.4977   72.9165   -1.6467 O.3     1  UNL1       -0.4371
      3 O          20.9776   73.7349   -1.9595 O.2     1  UNL1       -0.5170
      4 O          20.0048   71.6594   -3.2723 O.3     1  UNL1       -0.3112
      5 C          19.2646   70.4507   -3.2565 C.3     1  UNL1        0.1811
      6 O          17.5514   71.4837   -4.5877 O.3     1  UNL1       -0.3308
      7 O          15.5924   69.9086   -2.9528 O.3     1  UNL1       -0.3794
      8 O          15.7482   68.4575   -5.2562 O.3     1  UNL1       -0.3779
      9 C          16.8949   69.5387   -3.4051 C.3     1  UNL1        0.1713
     10 C          16.8691   69.2345   -4.8881 C.3     1  UNL1        0.1895
     11 C          17.7806   70.7764   -3.3490 C.3     1  UNL1        0.1764
     12 C          16.8396   70.6266   -5.4956 C.3     1  UNL1        0.2383
     13 H          15.6658   70.1316   -2.0091 H       1  UNL1        0.2105
     14 H          15.7837   67.6314   -4.7440 H       1  UNL1        0.2106
     15 O          15.5073   70.2150   -7.9513 O.2     1  UNL1       -0.2464
     16 O          19.3810   70.8429  -10.3676 O.2     1  UNL1       -0.2670
     17 N          17.4751   70.6773   -6.7812 N.ar    1  UNL1       -0.2551
     18 N          17.4372   70.5275   -9.1529 N.ar    1  UNL1       -0.2743
     19 C          16.7160   70.4553   -7.9539 C.ar    1  UNL1        0.3323
     20 C          18.8367   70.9445   -6.8713 C.ar    1  UNL1        0.0869
     21 C          19.5098   71.0104   -8.0221 C.ar    1  UNL1        0.0795
     22 C          18.7912   70.7898   -9.2928 C.ar    1  UNL1        0.2626
     23 H          16.9119   70.3706  -10.0088 H       1  UNL1        0.1734
     24 O          20.3824   71.4686   -0.7770 O.3     1  UNL1       -0.2703
     25 P          21.7340   71.1979    0.0671 P.3     1  UNL1        0.2208
     26 O          22.8383   70.9168   -1.0808 O.3     1  UNL1       -0.4371
     27 O          21.6124   70.1060    1.0911 O.2     1  UNL1       -0.5170
     28 O          22.1329   72.6391    0.6735 O.3     1  UNL1       -0.2858
     29 O          23.4215   71.8674    2.5020 O.3     1  UNL1       -0.3226
     30 O          24.5641   75.8564    2.2531 O.3     1  UNL1       -0.3794
     31 O          21.7733   75.0894    1.8939 O.3     1  UNL1       -0.3775
     32 O          25.3776   73.6214    3.6577 O.3     1  UNL1       -0.3792
     33 C          24.1457   74.5689    1.8085 C.3     1  UNL1        0.1718
     34 C          22.7773   74.2172    2.4019 C.3     1  UNL1        0.1968
     35 C          25.1866   73.5329    2.2419 C.3     1  UNL1        0.1723
     36 C          22.3971   72.7690    2.0697 C.3     1  UNL1        0.2706
     37 C          24.6880   72.1305    1.9000 C.3     1  UNL1        0.1830
     38 H          25.4334   76.0357    1.8560 H       1  UNL1        0.2105
     39 H          20.9261   74.8232    2.2891 H       1  UNL1        0.2106
     40 H          24.6015   73.2365    4.0988 H       1  UNL1        0.2106
     41 O          24.9300   69.9512    2.7341 O.co2   1  UNL1       -0.5466
     42 O          26.8229   71.2081    2.5490 O.co2   1  UNL1       -0.5466
     43 C          25.6140   71.0783    2.4218 C.2     1  UNL1        0.0799
@<TRIPOS>UNITY_ATOM_ATTR
41 1
charge -1
@<TRIPOS>BOND
     1     1     4    1
     2     1    24    1
     3     1     2    1
     4     1     3    2
     5    25    28    1
     6    25    24    1
     7    25    26    1
     8    25    27    2
     9     6    11    1
    10     6    12    1
    11    29    36    1
    12    29    37    1
    13     7     9    1
    14     7    13    1
    15     8    10    1
    16     8    14    1
    17     4     5    1
    18    28    36    1
    19    30    33    1
    20    30    38    1
    21    31    34    1
    22    31    39    1
    23    32    35    1
    24    32    40    1
    25    41    43   ar
    26    15    19    2
    27    42    43   ar
    28    16    22    2
    29    17    12    1
    30    17    19   ar
    31    17    20   ar
    32    18    19   ar
    33    18    22   ar
    34    18    23    1
    35     9    10    1
    36     9    11    1
    37    10    12    1
    38    11     5    1
    39    33    34    1
    40    33    35    1
    41    34    36    1
    42    35    37    1
    43    37    43    1
    44    20    21   ar
    45    21    22   ar
@<TRIPOS>MOLECULE
UDP-glaA
 43 45 0 0 0
SMALL
GASTEIGER

@<TRIPOS>ATOM
      1 P          21.5355   72.3004   -4.7463 P.3     1  UNL1        0.2189
      2 O          20.7964   73.7393   -4.7685 O.3     1  UNL1       -0.4371
      3 O          22.6845   72.1641   -5.7021 O.2     1  UNL1       -0.5170
      4 O          20.3300   71.2400   -4.9407 O.3     1  UNL1       -0.3112
      5 C          19.6936   70.7187   -3.7864 C.3     1  UNL1        0.1811
      6 O          17.9285   71.6592   -5.1183 O.3     1  UNL1       -0.3308
      7 O          16.0350   70.3693   -3.1838 O.3     1  UNL1       -0.3794
      8 O          15.9825   68.6533   -5.3025 O.3     1  UNL1       -0.3779
      9 C          17.2899   69.8951   -3.6717 C.3     1  UNL1        0.1713
     10 C          17.1516   69.4207   -5.1029 C.3     1  UNL1        0.1895
     11 C          18.2186   71.0929   -3.8213 C.3     1  UNL1        0.1764
     12 C          17.1273   70.7322   -5.8693 C.3     1  UNL1        0.2383
     13 H          16.1808   70.6979   -2.2803 H       1  UNL1        0.2105
     14 H          16.0254   67.8920   -4.6985 H       1  UNL1        0.2106
     15 O          15.5833   70.6215   -8.2314 O.2     1  UNL1       -0.2464
     16 O          19.3336   70.2431  -10.8829 O.2     1  UNL1       -0.2670
     17 N          17.6740   70.6055   -7.1901 N.ar    1  UNL1       -0.2551
     18 N          17.4518   70.4326   -9.5501 N.ar    1  UNL1       -0.2743
     19 C          16.8115   70.5581   -8.3102 C.ar    1  UNL1        0.3323
     20 C          19.0512   70.5294   -7.3659 C.ar    1  UNL1        0.0869
     21 C          19.6464   70.4104   -8.5547 C.ar    1  UNL1        0.0795
     22 C          18.8174   70.3529   -9.7750 C.ar    1  UNL1        0.2626
     23 H          16.8514   70.3960  -10.3695 H       1  UNL1        0.1734
     24 O          21.9303   72.1198   -3.1885 O.3     1  UNL1       -0.2703
     25 P          23.3722   72.0417   -2.4623 P.3     1  UNL1        0.2208
     26 O          24.0628   73.4502   -2.8561 O.3     1  UNL1       -0.4371
     27 O          24.1815   70.8306   -2.8285 O.2     1  UNL1       -0.5170
     28 O          23.0447   72.1735   -0.8877 O.3     1  UNL1       -0.2858
     29 O          24.4462   71.1459    0.7183 O.3     1  UNL1       -0.3226
     30 O          20.9665   71.8065    2.8942 O.3     1  UNL1       -0.3794
     31 O          20.8334   70.8739    0.1340 O.3     1  UNL1       -0.3775
     32 O          23.5425   70.9700    3.4369 O.3     1  UNL1       -0.3792
     33 C          21.9878   72.0382    1.9280 C.3     1  UNL1        0.1718
     34 C          22.0280   70.8951    0.9082 C.3     1  UNL1        0.1968
     35 C          23.3350   72.1459    2.6476 C.3     1  UNL1        0.1723
     36 C          23.2307   71.0474   -0.0313 C.3     1  UNL1        0.2706
     37 C          24.4590   72.2521    1.6193 C.3     1  UNL1        0.1830
     38 H          20.9792   72.5515    3.5189 H       1  UNL1        0.2105
     39 H          20.9087   70.1425   -0.5017 H       1  UNL1        0.2106
     40 H          23.7577   70.2323    2.8415 H       1  UNL1        0.2106
     41 O          26.3385   70.9853    2.2248 O.co2   1  UNL1       -0.5466
     42 O          26.3527   73.1957    2.7826 O.co2   1  UNL1       -0.5466
     43 C          25.8036   72.2292    2.2740 C.2     1  UNL1        0.0799
@<TRIPOS>UNITY_ATOM_ATTR
41 1
charge -1
@<TRIPOS>BOND
     1     1     4    1
     2     1    24    1
     3     1     2    1
     4     1     3    2
     5    25    28    1
     6    25    24    1
     7    25    26    1
     8    25    27    2
     9     6    11    1
    10     6    12    1
    11    29    36    1
    12    29    37    1
    13     7     9    1
    14     7    13    1
    15     8    10    1
    16     8    14    1
    17     4     5    1
    18    28    36    1
    19    30    33    1
    20    30    38    1
    21    31    34    1
    22    31    39    1
    23    32    35    1
    24    32    40    1
    25    41    43   ar
    26    15    19    2
    27    42    43   ar
    28    16    22    2
    29    17    12    1
    30    17    19   ar
    31    17    20   ar
    32    18    19   ar
    33    18    22   ar
    34    18    23    1
    35     9    10    1
    36     9    11    1
    37    10    12    1
    38    11     5    1
    39    33    34    1
    40    33    35    1
    41    34    36    1
    42    35    37    1
    43    37    43    1
    44    20    21   ar
    45    21    22   ar
@<TRIPOS>MOLECULE
UDP-glaA
 43 45 0 0 0
SMALL
GASTEIGER

@<TRIPOS>ATOM
      1 P          21.7701   71.8192   -2.3254 P.3     1  UNL1        0.2189
      2 O          21.8712   73.3796   -2.7404 O.3     1  UNL1       -0.4371
      3 O          22.9757   70.9938   -2.6678 O.2     1  UNL1       -0.5170
      4 O          20.3747   71.3311   -2.9812 O.3     1  UNL1       -0.3112
      5 C          19.7652   72.1502   -3.9645 C.3     1  UNL1        0.1811
      6 O          17.7436   72.1025   -5.2626 O.3     1  UNL1       -0.3308
      7 O          16.5317   70.5894   -2.9750 O.3     1  UNL1       -0.3794
      8 O          17.0870   68.6124   -4.7692 O.3     1  UNL1       -0.3779
      9 C          17.8606   70.5317   -3.4931 C.3     1  UNL1        0.1713
     10 C          17.8796   69.7810   -4.8079 C.3     1  UNL1        0.1895
     11 C          18.2586   71.9376   -3.9230 C.3     1  UNL1        0.1764
     12 C          17.3387   70.8218   -5.7735 C.3     1  UNL1        0.2383
     13 H          16.5627   71.1114   -2.1552 H       1  UNL1        0.2105
     14 H          17.4313   68.0487   -4.0551 H       1  UNL1        0.2106
     15 O          15.7487   70.5630   -8.0930 O.2     1  UNL1       -0.2464
     16 O          19.4517   70.2115  -10.8139 O.2     1  UNL1       -0.2670
     17 N          17.8608   70.6620   -7.1006 N.ar    1  UNL1       -0.2551
     18 N          17.5937   70.3876   -9.4463 N.ar    1  UNL1       -0.2743
     19 C          16.9764   70.5397   -8.1978 C.ar    1  UNL1        0.3323
     20 C          19.2357   70.6274   -7.3052 C.ar    1  UNL1        0.0869
     21 C          19.8088   70.4822   -8.5019 C.ar    1  UNL1        0.0795
     22 C          18.9561   70.3470   -9.6995 C.ar    1  UNL1        0.2626
     23 H          16.9773   70.2973  -10.2495 H       1  UNL1        0.1734
     24 O          21.4257   71.8857   -0.7467 O.3     1  UNL1       -0.2703
     25 P          22.1916   71.2622    0.5328 P.3     1  UNL1        0.2208
     26 O          23.7164   71.1105    0.0149 O.3     1  UNL1       -0.4371
     27 O          21.5848   69.9913    1.0549 O.2     1  UNL1       -0.5170
     28 O          22.2426   72.4665    1.6057 O.3     1  UNL1       -0.2858
     29 O          22.9511   74.4162    0.4674 O.3     1  UNL1       -0.3226
     30 O          22.4655   75.8054    4.3550 O.3     1  UNL1       -0.3794
     31 O          23.6700   73.1971    3.8533 O.3     1  UNL1       -0.3775
     32 O          22.9601   76.9174    1.8753 O.3     1  UNL1       -0.3792
     33 C          22.2187   75.0288    3.1861 C.3     1  UNL1        0.1718
     34 C          23.4440   74.1747    2.8433 C.3     1  UNL1        0.1968
     35 C          21.8958   75.9719    2.0240 C.3     1  UNL1        0.1723
     36 C          23.2534   73.4676    1.4957 C.3     1  UNL1        0.2706
     37 C          21.7680   75.1687    0.7315 C.3     1  UNL1        0.1830
     38 H          21.6665   76.3304    4.5325 H       1  UNL1        0.2105
     39 H          24.4470   72.6764    3.5889 H       1  UNL1        0.2106
     40 H          23.7242   76.4631    1.4819 H       1  UNL1        0.2106
     41 O          22.7649   76.2945   -1.0693 O.co2   1  UNL1       -0.5466
     42 O          20.5103   76.5238   -0.8215 O.co2   1  UNL1       -0.5466
     43 C          21.5809   76.0632   -0.4525 C.2     1  UNL1        0.0799
@<TRIPOS>UNITY_ATOM_ATTR
41 1
charge -1
@<TRIPOS>BOND
     1     1     4    1
     2     1    24    1
     3     1     2    1
     4     1     3    2
     5    25    28    1
     6    25    24    1
     7    25    26    1
     8    25    27    2
     9     6    11    1
    10     6    12    1
    11    29    36    1
    12    29    37    1
    13     7     9    1
    14     7    13    1
    15     8    10    1
    16     8    14    1
    17     4     5    1
    18    28    36    1
    19    30    33    1
    20    30    38    1
    21    31    34    1
    22    31    39    1
    23    32    35    1
    24    32    40    1
    25    41    43   ar
    26    15    19    2
    27    42    43   ar
    28    16    22    2
    29    17    12    1
    30    17    19   ar
    31    17    20   ar
    32    18    19   ar
    33    18    22   ar
    34    18    23    1
    35     9    10    1
    36     9    11    1
    37    10    12    1
    38    11     5    1
    39    33    34    1
    40    33    35    1
    41    34    36    1
    42    35    37    1
    43    37    43    1
    44    20    21   ar
    45    21    22   ar
@<TRIPOS>MOLECULE
UDP-glaA
 43 45 0 0 0
SMALL
GASTEIGER

@<TRIPOS>ATOM
      1 P          22.9942   71.4405   -2.2967 P.3     1  UNL1        0.2189
      2 O          22.8442   73.0427   -2.4633 O.3     1  UNL1       -0.4371
      3 O          24.1683   70.8370   -3.0104 O.2     1  UNL1       -0.5170
      4 O          21.5429   70.8669   -2.7212 O.3     1  UNL1       -0.3112
      5 C          20.9139   71.4014   -3.8736 C.3     1  UNL1        0.1811
      6 O          18.7853   72.0025   -4.8128 O.3     1  UNL1       -0.3308
      7 O          17.5628   70.6385   -2.4387 O.3     1  UNL1       -0.3794
      8 O          17.2912   68.7688   -4.4050 O.3     1  UNL1       -0.3779
      9 C          18.7348   70.2907   -3.1759 C.3     1  UNL1        0.1713
     10 C          18.3552   69.6917   -4.5137 C.3     1  UNL1        0.1895
     11 C          19.4293   71.5813   -3.5901 C.3     1  UNL1        0.1764
     12 C          17.9786   70.9252   -5.3165 C.3     1  UNL1        0.2383
     13 H          17.8548   71.0529   -1.6089 H       1  UNL1        0.2105
     14 H          17.5724   68.0689   -3.7908 H       1  UNL1        0.2106
     15 O          15.9756   70.5627   -7.2741 O.2     1  UNL1       -0.2464
     16 O          19.0815   70.3215  -10.6702 O.2     1  UNL1       -0.2670
     17 N          18.2353   70.7657   -6.7194 N.ar    1  UNL1       -0.2551
     18 N          17.5236   70.4423   -8.9638 N.ar    1  UNL1       -0.2743
     19 C          17.1583   70.5889   -7.6191 C.ar    1  UNL1        0.3323
     20 C          19.5431   70.7851   -7.1913 C.ar    1  UNL1        0.0869
     21 C          19.8750   70.6444   -8.4765 C.ar    1  UNL1        0.0795
     22 C          18.8098   70.4544   -9.4809 C.ar    1  UNL1        0.2626
     23 H          16.7656   70.3133   -9.6287 H       1  UNL1        0.1734
     24 O          23.0074   71.2428   -0.6917 O.3     1  UNL1       -0.2703
     25 P          21.8587   71.4947    0.4171 P.3     1  UNL1        0.2208
     26 O          21.4697   69.9991    0.8948 O.3     1  UNL1       -0.4371
     27 O          20.6971   72.3106   -0.0737 O.2     1  UNL1       -0.5170
     28 O          22.6388   72.1355    1.6759 O.3     1  UNL1       -0.2858
     29 O          22.1876   73.8624    3.2296 O.3     1  UNL1       -0.3226
     30 O          26.2178   74.4623    2.4067 O.3     1  UNL1       -0.3794
     31 O          24.3550   73.7784    0.2693 O.3     1  UNL1       -0.3775
     32 O          24.3664   75.4609    4.1970 O.3     1  UNL1       -0.3792
     33 C          25.0001   73.7515    2.6123 C.3     1  UNL1        0.1718
     34 C          23.9530   74.1743    1.5765 C.3     1  UNL1        0.1968
     35 C          24.4878   74.0451    4.0250 C.3     1  UNL1        0.1723
     36 C          22.5906   73.5450    1.8932 C.3     1  UNL1        0.2706
     37 C          23.1133   73.4074    4.2154 C.3     1  UNL1        0.1830
     38 H          26.8488   74.1655    3.0843 H       1  UNL1        0.2105
     39 H          23.6590   74.0580   -0.3489 H       1  UNL1        0.2106
     40 H          23.5906   75.7674    3.6976 H       1  UNL1        0.2106
     41 O          21.5419   74.7045    5.3782 O.co2   1  UNL1       -0.5466
     42 O          22.8543   73.3088    6.6139 O.co2   1  UNL1       -0.5466
     43 C          22.5168   73.7769    5.5362 C.2     1  UNL1        0.0799
@<TRIPOS>UNITY_ATOM_ATTR
41 1
charge -1
@<TRIPOS>BOND
     1     1     4    1
     2     1    24    1
     3     1     2    1
     4     1     3    2
     5    25    28    1
     6    25    24    1
     7    25    26    1
     8    25    27    2
     9     6    11    1
    10     6    12    1
    11    29    36    1
    12    29    37    1
    13     7     9    1
    14     7    13    1
    15     8    10    1
    16     8    14    1
    17     4     5    1
    18    28    36    1
    19    30    33    1
    20    30    38    1
    21    31    34    1
    22    31    39    1
    23    32    35    1
    24    32    40    1
    25    41    43   ar
    26    15    19    2
    27    42    43   ar
    28    16    22    2
    29    17    12    1
    30    17    19   ar
    31    17    20   ar
    32    18    19   ar
    33    18    22   ar
    34    18    23    1
    35     9    10    1
    36     9    11    1
    37    10    12    1
    38    11     5    1
    39    33    34    1
    40    33    35    1
    41    34    36    1
    42    35    37    1
    43    37    43    1
    44    20    21   ar
    45    21    22   ar
@<TRIPOS>MOLECULE
UDP-glaA
 43 45 0 0 0
SMALL
GASTEIGER

@<TRIPOS>ATOM
      1 P          23.4725   73.5483   -4.1581 P.3     1  UNL1        0.2189
      2 O          22.7694   74.9900   -4.3689 O.3     1  UNL1       -0.4371
      3 O          24.9639   73.5891   -3.9962 O.2     1  UNL1       -0.5170
      4 O          22.9237   72.6624   -5.3948 O.3     1  UNL1       -0.3112
      5 C          21.5882   72.1897   -5.3493 C.3     1  UNL1        0.1811
      6 O          20.4667   70.3007   -6.3232 O.3     1  UNL1       -0.3308
      7 O          20.6857   71.7549   -8.9364 O.3     1  UNL1       -0.3794
      8 O          18.1004   72.2254   -8.2078 O.3     1  UNL1       -0.3779
      9 C          20.4608   72.2784   -7.6275 C.3     1  UNL1        0.1713
     10 C          19.0428   71.9885   -7.1825 C.3     1  UNL1        0.1895
     11 C          21.2787   71.4517   -6.6441 C.3     1  UNL1        0.1764
     12 C          19.1272   70.5221   -6.7944 C.3     1  UNL1        0.2383
     13 H          21.6152   71.9294   -9.1625 H       1  UNL1        0.2105
     14 H          18.1855   73.1572   -8.4740 H       1  UNL1        0.2106
     15 O          16.4286   69.8116   -7.2276 O.2     1  UNL1       -0.2464
     16 O          15.6709   69.2176   -2.7207 O.2     1  UNL1       -0.2670
     17 N          18.2026   70.1767   -5.7528 N.ar    1  UNL1       -0.2551
     18 N          16.0529   69.5168   -4.9830 N.ar    1  UNL1       -0.2743
     19 C          16.8685   69.8358   -6.0767 C.ar    1  UNL1        0.3323
     20 C          18.6203   70.1780   -4.4265 C.ar    1  UNL1        0.0869
     21 C          17.8307   69.8710   -3.3950 C.ar    1  UNL1        0.0795
     22 C          16.4229   69.5045   -3.6471 C.ar    1  UNL1        0.2626
     23 H          15.0896   69.2691   -5.1921 H       1  UNL1        0.1734
     24 O          22.6740   72.9376   -2.8913 O.3     1  UNL1       -0.2703
     25 P          22.7940   71.5048   -2.1530 P.3     1  UNL1        0.2208
     26 O          24.1099   70.8490   -2.8271 O.3     1  UNL1       -0.4371
     27 O          21.5588   70.6560   -2.2509 O.2     1  UNL1       -0.5170
     28 O          23.2417   71.8588   -0.6436 O.3     1  UNL1       -0.2858
     29 O          24.5706   70.9140    1.0714 O.3     1  UNL1       -0.3226
     30 O          21.1280   71.9975    3.1339 O.3     1  UNL1       -0.3794
     31 O          20.9506   70.8036    0.4789 O.3     1  UNL1       -0.3775
     32 O          23.6456   71.0655    3.7843 O.3     1  UNL1       -0.3792
     33 C          22.1659   72.0695    2.1603 C.3     1  UNL1        0.1718
     34 C          22.1407   70.8299    1.2597 C.3     1  UNL1        0.1968
     35 C          23.5139   72.1671    2.8798 C.3     1  UNL1        0.1723
     36 C          23.3547   70.8147    0.3225 C.3     1  UNL1        0.2706
     37 C          24.6469   72.1019    1.8580 C.3     1  UNL1        0.1830
     38 H          21.1834   72.7991    3.6816 H       1  UNL1        0.2105
     39 H          20.9839   70.0091   -0.0801 H       1  UNL1        0.2106
     40 H          23.8180   70.2603    3.2675 H       1  UNL1        0.2106
     41 O          26.5427   70.8344    2.4086 O.co2   1  UNL1       -0.5466
     42 O          26.5105   73.0071    3.0979 O.co2   1  UNL1       -0.5466
     43 C          25.9846   72.0634    2.5258 C.2     1  UNL1        0.0799
@<TRIPOS>UNITY_ATOM_ATTR
41 1
charge -1
@<TRIPOS>BOND
     1     1     4    1
     2     1    24    1
     3     1     2    1
     4     1     3    2
     5    25    28    1
     6    25    24    1
     7    25    26    1
     8    25    27    2
     9     6    11    1
    10     6    12    1
    11    29    36    1
    12    29    37    1
    13     7     9    1
    14     7    13    1
    15     8    10    1
    16     8    14    1
    17     4     5    1
    18    28    36    1
    19    30    33    1
    20    30    38    1
    21    31    34    1
    22    31    39    1
    23    32    35    1
    24    32    40    1
    25    41    43   ar
    26    15    19    2
    27    42    43   ar
    28    16    22    2
    29    17    12    1
    30    17    19   ar
    31    17    20   ar
    32    18    19   ar
    33    18    22   ar
    34    18    23    1
    35     9    10    1
    36     9    11    1
    37    10    12    1
    38    11     5    1
    39    33    34    1
    40    33    35    1
    41    34    36    1
    42    35    37    1
    43    37    43    1
    44    20    21   ar
    45    21    22   ar
@<TRIPOS>MOLECULE
UDP-glaA
 43 45 0 0 0
SMALL
GASTEIGER

@<TRIPOS>ATOM
      1 P          20.0878   73.0101   -5.0684 P.3     1  UNL1        0.2189
      2 O          19.3734   72.4678   -3.7219 O.3     1  UNL1       -0.4371
      3 O          19.4970   74.2675   -5.6359 O.2     1  UNL1       -0.5170
      4 O          20.0884   71.7271   -6.0530 O.3     1  UNL1       -0.3112
      5 C          19.9941   71.9455   -7.4504 C.3     1  UNL1        0.1811
      6 O          18.6861   69.9689   -7.0547 O.3     1  UNL1       -0.3308
      7 O          18.0368   70.0391   -9.9812 O.3     1  UNL1       -0.3794
      8 O          15.7919   71.0934   -8.8477 O.3     1  UNL1       -0.3779
      9 C          18.2129   71.1228   -9.0689 C.3     1  UNL1        0.1713
     10 C          17.0131   71.2379   -8.1525 C.3     1  UNL1        0.1895
     11 C          19.3215   70.7425   -8.0963 C.3     1  UNL1        0.1764
     12 C          17.2602   70.1098   -7.1654 C.3     1  UNL1        0.2383
     13 H          18.8442   69.9796  -10.5199 H       1  UNL1        0.2105
     14 H          15.7606   71.7848   -9.5312 H       1  UNL1        0.2106
     15 O          16.6611   68.1416   -5.2309 O.2     1  UNL1       -0.2464
     16 O          15.1730   71.2951   -2.2176 O.2     1  UNL1       -0.2670
     17 N          16.7161   70.3883   -5.8671 N.ar    1  UNL1       -0.2551
     18 N          15.9200   69.7132   -3.7319 N.ar    1  UNL1       -0.2743
     19 C          16.4504   69.3274   -4.9700 C.ar    1  UNL1        0.3323
     20 C          16.4508   71.7012   -5.4937 C.ar    1  UNL1        0.0869
     21 C          15.9455   72.0527   -4.3093 C.ar    1  UNL1        0.0795
     22 C          15.6388   71.0051   -3.3153 C.ar    1  UNL1        0.2626
     23 H          15.7205   68.9670   -3.0711 H       1  UNL1        0.1734
     24 O          21.6398   73.1329   -4.6310 O.3     1  UNL1       -0.2703
     25 P          22.5390   72.2202   -3.6456 P.3     1  UNL1        0.2208
     26 O          24.0111   72.2943   -4.3116 O.3     1  UNL1       -0.4371
     27 O          22.0165   70.8257   -3.4500 O.2     1  UNL1       -0.5170
     28 O          22.6613   73.0828   -2.2873 O.3     1  UNL1       -0.2858
     29 O          21.1437   72.5956   -0.5383 O.3     1  UNL1       -0.3226
     30 O          22.7060   76.2570    0.6587 O.3     1  UNL1       -0.3794
     31 O          22.0482   75.7708   -2.1407 O.3     1  UNL1       -0.3775
     32 O          21.0758   74.3168    1.7577 O.3     1  UNL1       -0.3792
     33 C          22.6729   74.9624    0.0644 C.3     1  UNL1        0.1718
     34 C          21.6450   74.9218   -1.0714 C.3     1  UNL1        0.1968
     35 C          22.3080   73.9338    1.1383 C.3     1  UNL1        0.1723
     36 C          21.4784   73.4926   -1.6024 C.3     1  UNL1        0.2706
     37 C          22.1281   72.5610    0.4938 C.3     1  UNL1        0.1830
     38 H          23.3665   76.2356    1.3720 H       1  UNL1        0.2105
     39 H          21.3738   75.7051   -2.8377 H       1  UNL1        0.2106
     40 H          20.3493   74.1382    1.1368 H       1  UNL1        0.2106
     41 O          21.6320   70.3113    0.9371 O.co2   1  UNL1       -0.5466
     42 O          21.3082   71.7995    2.6334 O.co2   1  UNL1       -0.5466
     43 C          21.6445   71.5504    1.4848 C.2     1  UNL1        0.0799
@<TRIPOS>UNITY_ATOM_ATTR
41 1
charge -1
@<TRIPOS>BOND
     1     1     4    1
     2     1    24    1
     3     1     2    1
     4     1     3    2
     5    25    28    1
     6    25    24    1
     7    25    26    1
     8    25    27    2
     9     6    11    1
    10     6    12    1
    11    29    36    1
    12    29    37    1
    13     7     9    1
    14     7    13    1
    15     8    10    1
    16     8    14    1
    17     4     5    1
    18    28    36    1
    19    30    33    1
    20    30    38    1
    21    31    34    1
    22    31    39    1
    23    32    35    1
    24    32    40    1
    25    41    43   ar
    26    15    19    2
    27    42    43   ar
    28    16    22    2
    29    17    12    1
    30    17    19   ar
    31    17    20   ar
    32    18    19   ar
    33    18    22   ar
    34    18    23    1
    35     9    10    1
    36     9    11    1
    37    10    12    1
    38    11     5    1
    39    33    34    1
    40    33    35    1
    41    34    36    1
    42    35    37    1
    43    37    43    1
    44    20    21   ar
    45    21    22   ar
@<TRIPOS>MOLECULE
UDP-glaA
 43 45 0 0 0
SMALL
GASTEIGER

@<TRIPOS>ATOM
      1 P          22.8448   71.0608    0.5963 P.3     1  UNL1        0.2189
      2 O          21.6676   70.1309    1.2019 O.3     1  UNL1       -0.4371
      3 O          24.2331   70.6811    1.0213 O.2     1  UNL1       -0.5170
      4 O          22.3828   72.5655    0.9677 O.3     1  UNL1       -0.3112
      5 C          22.7786   73.1069    2.2165 C.3     1  UNL1        0.1811
      6 O          22.3995   72.5821    4.5306 O.3     1  UNL1       -0.3308
      7 O          19.5265   73.2749    4.0237 O.3     1  UNL1       -0.3794
      8 O          20.4728   75.5192    5.2498 O.3     1  UNL1       -0.3779
      9 C          20.7073   73.8666    3.4822 C.3     1  UNL1        0.1713
     10 C          21.3900   74.7258    4.5254 C.3     1  UNL1        0.1895
     11 C          21.7295   72.7590    3.2630 C.3     1  UNL1        0.1764
     12 C          22.0743   73.6840    5.3939 C.3     1  UNL1        0.2383
     13 H          19.1458   72.7045    3.3343 H       1  UNL1        0.2105
     14 H          20.0006   76.0790    4.6096 H       1  UNL1        0.2106
     15 O          22.3523   74.3041    8.1350 O.2     1  UNL1       -0.2464
     16 O          26.7485   75.5748    7.5894 O.2     1  UNL1       -0.2670
     17 N          23.2801   74.1780    5.9952 N.ar    1  UNL1       -0.2551
     18 N          24.5411   74.9369    7.8614 N.ar    1  UNL1       -0.2743
     19 C          23.3147   74.4593    7.3810 C.ar    1  UNL1        0.3323
     20 C          24.4123   74.3793    5.2137 C.ar    1  UNL1        0.0869
     21 C          25.5745   74.8348    5.6867 C.ar    1  UNL1        0.0795
     22 C          25.6943   75.1537    7.1232 C.ar    1  UNL1        0.2626
     23 H          24.5890   75.1465    8.8548 H       1  UNL1        0.1734
     24 O          22.5836   70.9838   -0.9977 O.3     1  UNL1       -0.2703
     25 P          21.2283   71.1635   -1.8600 P.3     1  UNL1        0.2208
     26 O          21.1490   72.7614   -2.0978 O.3     1  UNL1       -0.4371
     27 O          20.0067   70.5708   -1.2180 O.2     1  UNL1       -0.5170
     28 O          21.5824   70.5517   -3.3106 O.3     1  UNL1       -0.2858
     29 O          19.5356   69.7385   -4.1757 O.3     1  UNL1       -0.3226
     30 O          18.6594   73.7427   -3.4845 O.3     1  UNL1       -0.3794
     31 O          21.2341   72.9624   -4.6106 O.3     1  UNL1       -0.3775
     32 O          17.2502   71.4751   -4.1929 O.3     1  UNL1       -0.3792
     33 C          19.2582   72.4651   -3.2858 C.3     1  UNL1        0.1718
     34 C          20.1192   72.0845   -4.4950 C.3     1  UNL1        0.1968
     35 C          18.1521   71.4261   -3.0825 C.3     1  UNL1        0.1723
     36 C          20.6280   70.6433   -4.3674 C.3     1  UNL1        0.2706
     37 C          18.7666   70.0299   -3.0098 C.3     1  UNL1        0.1830
     38 H          18.1233   73.9410   -2.6978 H       1  UNL1        0.2105
     39 H          21.7531   72.6775   -5.3815 H       1  UNL1        0.2106
     40 H          17.6856   71.0708   -4.9625 H       1  UNL1        0.2106
     41 O          17.3778   68.5481   -4.1842 O.co2   1  UNL1       -0.5466
     42 O          17.2184   68.5387   -1.9101 O.co2   1  UNL1       -0.5466
     43 C          17.7126   68.9710   -2.9413 C.2     1  UNL1        0.0799
@<TRIPOS>UNITY_ATOM_ATTR
41 1
charge -1
@<TRIPOS>BOND
     1     1     4    1
     2     1    24    1
     3     1     2    1
     4     1     3    2
     5    25    28    1
     6    25    24    1
     7    25    26    1
     8    25    27    2
     9     6    11    1
    10     6    12    1
    11    29    36    1
    12    29    37    1
    13     7     9    1
    14     7    13    1
    15     8    10    1
    16     8    14    1
    17     4     5    1
    18    28    36    1
    19    30    33    1
    20    30    38    1
    21    31    34    1
    22    31    39    1
    23    32    35    1
    24    32    40    1
    25    41    43   ar
    26    15    19    2
    27    42    43   ar
    28    16    22    2
    29    17    12    1
    30    17    19   ar
    31    17    20   ar
    32    18    19   ar
    33    18    22   ar
    34    18    23    1
    35     9    10    1
    36     9    11    1
    37    10    12    1
    38    11     5    1
    39    33    34    1
    40    33    35    1
    41    34    36    1
    42    35    37    1
    43    37    43    1
    44    20    21   ar
    45    21    22   ar
@<TRIPOS>MOLECULE
UDP-glaA
 43 45 0 0 0
SMALL
GASTEIGER

@<TRIPOS>ATOM
      1 P          22.6201   71.4396   -2.7954 P.3     1  UNL1        0.2189
      2 O          22.0435   72.4466   -3.9227 O.3     1  UNL1       -0.4371
      3 O          24.0163   70.9473   -3.0410 O.2     1  UNL1       -0.5170
      4 O          21.4825   70.2963   -2.6755 O.3     1  UNL1       -0.3112
      5 C          20.6615   70.0370   -3.8015 C.3     1  UNL1        0.1811
      6 O          18.9083   71.3789   -4.7500 O.3     1  UNL1       -0.3308
      7 O          17.1318   70.2243   -2.6283 O.3     1  UNL1       -0.3794
      8 O          16.4600   68.7606   -4.8288 O.3     1  UNL1       -0.3779
      9 C          18.1958   69.6050   -3.3507 C.3     1  UNL1        0.1713
     10 C          17.7621   69.3052   -4.7701 C.3     1  UNL1        0.1895
     11 C          19.2869   70.6460   -3.5640 C.3     1  UNL1        0.1764
     12 C          17.8529   70.6735   -5.4238 C.3     1  UNL1        0.2383
     13 H          17.4675   70.4327   -1.7398 H       1  UNL1        0.2105
     14 H          16.4593   67.9457   -4.2977 H       1  UNL1        0.2106
     15 O          15.9432   70.2468   -7.4600 O.2     1  UNL1       -0.2464
     16 O          19.1597   70.3819  -10.7576 O.2     1  UNL1       -0.2670
     17 N          18.1633   70.5934   -6.8225 N.ar    1  UNL1       -0.2551
     18 N          17.5462   70.3138   -9.1007 N.ar    1  UNL1       -0.2743
     19 C          17.1304   70.3755   -7.7641 C.ar    1  UNL1        0.3323
     20 C          19.4795   70.7300   -7.2494 C.ar    1  UNL1        0.0869
     21 C          19.8598   70.6693   -8.5275 C.ar    1  UNL1        0.0795
     22 C          18.8428   70.4435   -9.5736 C.ar    1  UNL1        0.2626
     23 H          16.8206   70.1572   -9.7950 H       1  UNL1        0.1734
     24 O          22.4338   72.2821   -1.4276 O.3     1  UNL1       -0.2703
     25 P          22.9395   73.7611   -1.0161 P.3     1  UNL1        0.2208
     26 O          21.7080   74.3454   -0.1453 O.3     1  UNL1       -0.4371
     27 O          23.3388   74.6217   -2.1805 O.2     1  UNL1       -0.5170
     28 O          24.1155   73.5067    0.0591 O.3     1  UNL1       -0.2858
     29 O          22.9870   73.7411    2.1258 O.3     1  UNL1       -0.3226
     30 O          21.0395   70.4812    0.4347 O.3     1  UNL1       -0.3794
     31 O          23.9345   70.7560    0.2129 O.3     1  UNL1       -0.3775
     32 O          20.6885   72.1018    2.6439 O.3     1  UNL1       -0.3792
     33 C          21.7252   71.7288    0.4942 C.3     1  UNL1        0.1718
     34 C          23.1269   71.5406    1.0841 C.3     1  UNL1        0.1968
     35 C          20.9171   72.6972    1.3624 C.3     1  UNL1        0.1723
     36 C          23.8071   72.8964    1.3115 C.3     1  UNL1        0.2706
     37 C          21.7035   73.9919    1.5553 C.3     1  UNL1        0.1830
     38 H          20.1585   70.6483    0.0584 H       1  UNL1        0.2105
     39 H          24.8121   70.6722    0.6223 H       1  UNL1        0.2106
     40 H          21.5207   72.1208    3.1461 H       1  UNL1        0.2106
     41 O          21.9071   75.6962    3.1546 O.co2   1  UNL1       -0.5466
     42 O          19.8001   74.9723    2.6713 O.co2   1  UNL1       -0.5466
     43 C          21.0097   74.9175    2.5035 C.2     1  UNL1        0.0799
@<TRIPOS>UNITY_ATOM_ATTR
41 1
charge -1
@<TRIPOS>BOND
     1     1     4    1
     2     1    24    1
     3     1     2    1
     4     1     3    2
     5    25    28    1
     6    25    24    1
     7    25    26    1
     8    25    27    2
     9     6    11    1
    10     6    12    1
    11    29    36    1
    12    29    37    1
    13     7     9    1
    14     7    13    1
    15     8    10    1
    16     8    14    1
    17     4     5    1
    18    28    36    1
    19    30    33    1
    20    30    38    1
    21    31    34    1
    22    31    39    1
    23    32    35    1
    24    32    40    1
    25    41    43   ar
    26    15    19    2
    27    42    43   ar
    28    16    22    2
    29    17    12    1
    30    17    19   ar
    31    17    20   ar
    32    18    19   ar
    33    18    22   ar
    34    18    23    1
    35     9    10    1
    36     9    11    1
    37    10    12    1
    38    11     5    1
    39    33    34    1
    40    33    35    1
    41    34    36    1
    42    35    37    1
    43    37    43    1
    44    20    21   ar
    45    21    22   ar
@<TRIPOS>MOLECULE
UDP-glaA
 43 45 0 0 0
SMALL
GASTEIGER

@<TRIPOS>ATOM
      1 P          23.1567   71.5663   -2.4912 P.3     1  UNL1        0.2189
      2 O          23.3568   73.1341   -2.1456 O.3     1  UNL1       -0.4371
      3 O          24.3401   70.9038   -3.1337 O.2     1  UNL1       -0.5170
      4 O          21.7817   71.5272   -3.3417 O.3     1  UNL1       -0.3112
      5 C          21.5182   72.5808   -4.2526 C.3     1  UNL1        0.1811
      6 O          20.5614   70.7997   -5.5511 O.3     1  UNL1       -0.3308
      7 O          20.9761   72.5678   -7.9372 O.3     1  UNL1       -0.3794
      8 O          18.3184   72.8850   -7.4157 O.3     1  UNL1       -0.3779
      9 C          20.6097   72.9216   -6.6036 C.3     1  UNL1        0.1713
     10 C          19.1670   72.5463   -6.3383 C.3     1  UNL1        0.1895
     11 C          21.3592   72.0000   -5.6504 C.3     1  UNL1        0.1764
     12 C          19.2657   71.0458   -6.1220 C.3     1  UNL1        0.2383
     13 H          21.9162   72.7903   -8.0481 H       1  UNL1        0.2105
     14 H          18.3956   73.8440   -7.5588 H       1  UNL1        0.2106
     15 O          16.9105   69.7196   -6.9403 O.2     1  UNL1       -0.2464
     16 O          15.4723   69.2034   -2.5924 O.2     1  UNL1       -0.2670
     17 N          18.2591   70.5538   -5.2254 N.ar    1  UNL1       -0.2551
     18 N          16.1956   69.4639   -4.7747 N.ar    1  UNL1       -0.2743
     19 C          17.1130   69.9026   -5.7385 C.ar    1  UNL1        0.3323
     20 C          18.4125   70.7187   -3.8533 C.ar    1  UNL1        0.0869
     21 C          17.5291   70.2943   -2.9471 C.ar    1  UNL1        0.0795
     22 C          16.3044   69.6052   -3.3999 C.ar    1  UNL1        0.2626
     23 H          15.3637   68.9935   -5.1207 H       1  UNL1        0.1734
     24 O          22.7214   70.9342   -1.0678 O.3     1  UNL1       -0.2703
     25 P          21.8349   71.5460    0.1373 P.3     1  UNL1        0.2208
     26 O          21.3718   70.2332    0.9608 O.3     1  UNL1       -0.4371
     27 O          20.7042   72.4252   -0.3146 O.2     1  UNL1       -0.5170
     28 O          22.9034   72.2767    1.1009 O.3     1  UNL1       -0.2858
     29 O          22.1780   73.7736    2.7839 O.3     1  UNL1       -0.3226
     30 O          26.1876   74.7935    2.3801 O.3     1  UNL1       -0.3794
     31 O          24.5647   74.2041    0.0296 O.3     1  UNL1       -0.3775
     32 O          24.1206   75.4270    4.0996 O.3     1  UNL1       -0.3792
     33 C          25.0279   73.9659    2.4035 C.3     1  UNL1        0.1718
     34 C          24.0290   74.4151    1.3317 C.3     1  UNL1        0.1968
     35 C          24.3840   74.0546    3.7898 C.3     1  UNL1        0.1723
     36 C          22.7097   73.6437    1.4612 C.3     1  UNL1        0.2706
     37 C          23.0631   73.2881    3.7921 C.3     1  UNL1        0.1830
     38 H          26.7892   74.4751    3.0745 H       1  UNL1        0.2105
     39 H          23.8956   74.4933   -0.6134 H       1  UNL1        0.2106
     40 H          23.3606   75.7228    3.5704 H       1  UNL1        0.2106
     41 O          21.3835   74.4135    4.9822 O.co2   1  UNL1       -0.5466
     42 O          22.5608   72.8175    6.1064 O.co2   1  UNL1       -0.5466
     43 C          22.3357   73.4555    5.0882 C.2     1  UNL1        0.0799
@<TRIPOS>UNITY_ATOM_ATTR
41 1
charge -1
@<TRIPOS>BOND
     1     1     4    1
     2     1    24    1
     3     1     2    1
     4     1     3    2
     5    25    28    1
     6    25    24    1
     7    25    26    1
     8    25    27    2
     9     6    11    1
    10     6    12    1
    11    29    36    1
    12    29    37    1
    13     7     9    1
    14     7    13    1
    15     8    10    1
    16     8    14    1
    17     4     5    1
    18    28    36    1
    19    30    33    1
    20    30    38    1
    21    31    34    1
    22    31    39    1
    23    32    35    1
    24    32    40    1
    25    41    43   ar
    26    15    19    2
    27    42    43   ar
    28    16    22    2
    29    17    12    1
    30    17    19   ar
    31    17    20   ar
    32    18    19   ar
    33    18    22   ar
    34    18    23    1
    35     9    10    1
    36     9    11    1
    37    10    12    1
    38    11     5    1
    39    33    34    1
    40    33    35    1
    41    34    36    1
    42    35    37    1
    43    37    43    1
    44    20    21   ar
    45    21    22   ar
@<TRIPOS>MOLECULE
UDP-glaA
 43 45 0 0 0
SMALL
GASTEIGER

@<TRIPOS>ATOM
      1 P          21.7916   72.3831   -5.5535 P.3     1  UNL1        0.2189
      2 O          21.0167   73.7554   -5.1878 O.3     1  UNL1       -0.4371
      3 O          23.0628   72.5618   -6.3307 O.2     1  UNL1       -0.5170
      4 O          20.6578   71.4719   -6.2604 O.3     1  UNL1       -0.3112
      5 C          20.1524   71.8765   -7.5214 C.3     1  UNL1        0.1811
      6 O          18.8599   69.8858   -7.1462 O.3     1  UNL1       -0.3308
      7 O          18.1226   70.0424  -10.0485 O.3     1  UNL1       -0.3794
      8 O          15.9113   71.0568   -8.8168 O.3     1  UNL1       -0.3779
      9 C          18.3245   71.0986   -9.1097 C.3     1  UNL1        0.1713
     10 C          17.1527   71.1833   -8.1545 C.3     1  UNL1        0.1895
     11 C          19.4624   70.6919   -8.1827 C.3     1  UNL1        0.1764
     12 C          17.4311   70.0266   -7.2098 C.3     1  UNL1        0.2383
     13 H          18.9135   70.0011  -10.6127 H       1  UNL1        0.2105
     14 H          15.8585   71.7684   -9.4779 H       1  UNL1        0.2106
     15 O          16.3125   68.0369   -5.5470 O.2     1  UNL1       -0.2464
     16 O          15.5223   71.0563   -2.1562 O.2     1  UNL1       -0.2670
     17 N          16.9258   70.2646   -5.8879 N.ar    1  UNL1       -0.2551
     18 N          15.9193   69.5418   -3.8598 N.ar    1  UNL1       -0.2743
     19 C          16.3834   69.1964   -5.1359 C.ar    1  UNL1        0.3323
     20 C          16.9705   71.5457   -5.3490 C.ar    1  UNL1        0.0869
     21 C          16.5243   71.8588   -4.1306 C.ar    1  UNL1        0.0795
     22 C          15.9420   70.8012   -3.2808 C.ar    1  UNL1        0.2626
     23 H          15.5245   68.7898   -3.3014 H       1  UNL1        0.1734
     24 O          21.9778   71.6767   -4.1108 O.3     1  UNL1       -0.2703
     25 P          23.1311   71.8418   -2.9904 P.3     1  UNL1        0.2208
     26 O          23.6424   73.3612   -3.2053 O.3     1  UNL1       -0.4371
     27 O          24.2160   70.8060   -3.0659 O.2     1  UNL1       -0.5170
     28 O          22.3359   71.8732   -1.5866 O.3     1  UNL1       -0.2858
     29 O          23.8726   72.7608   -0.0213 O.3     1  UNL1       -0.3226
     30 O          20.4398   72.3214    2.2814 O.3     1  UNL1       -0.3794
     31 O          21.2046   70.2693    0.3552 O.3     1  UNL1       -0.3775
     32 O          22.9312   73.4722    2.5952 O.3     1  UNL1       -0.3792
     33 C          21.2364   72.5736    1.1272 C.3     1  UNL1        0.1718
     34 C          22.0587   71.3326    0.7638 C.3     1  UNL1        0.1968
     35 C          22.1686   73.7532    1.4170 C.3     1  UNL1        0.1723
     36 C          23.0442   71.6464   -0.3688 C.3     1  UNL1        0.2706
     37 C          23.1285   73.9486    0.2454 C.3     1  UNL1        0.1830
     38 H          19.9398   73.1325    2.4756 H       1  UNL1        0.2105
     39 H          21.7685   69.5112    0.1269 H       1  UNL1        0.2106
     40 H          23.6062   72.8080    2.3752 H       1  UNL1        0.2106
     41 O          25.2216   74.4766    1.1639 O.co2   1  UNL1       -0.5466
     42 O          24.0239   76.1909    0.2565 O.co2   1  UNL1       -0.5466
     43 C          24.1428   75.0076    0.5397 C.2     1  UNL1        0.0799
@<TRIPOS>UNITY_ATOM_ATTR
41 1
charge -1
@<TRIPOS>BOND
     1     1     4    1
     2     1    24    1
     3     1     2    1
     4     1     3    2
     5    25    28    1
     6    25    24    1
     7    25    26    1
     8    25    27    2
     9     6    11    1
    10     6    12    1
    11    29    36    1
    12    29    37    1
    13     7     9    1
    14     7    13    1
    15     8    10    1
    16     8    14    1
    17     4     5    1
    18    28    36    1
    19    30    33    1
    20    30    38    1
    21    31    34    1
    22    31    39    1
    23    32    35    1
    24    32    40    1
    25    41    43   ar
    26    15    19    2
    27    42    43   ar
    28    16    22    2
    29    17    12    1
    30    17    19   ar
    31    17    20   ar
    32    18    19   ar
    33    18    22   ar
    34    18    23    1
    35     9    10    1
    36     9    11    1
    37    10    12    1
    38    11     5    1
    39    33    34    1
    40    33    35    1
    41    34    36    1
    42    35    37    1
    43    37    43    1
    44    20    21   ar
    45    21    22   ar
@<TRIPOS>MOLECULE
UDP-glaA
 43 45 0 0 0
SMALL
GASTEIGER

@<TRIPOS>ATOM
      1 P          23.0478   71.6175   -2.6203 P.3     1  UNL1        0.2189
      2 O          23.3895   73.1218   -2.1328 O.3     1  UNL1       -0.4371
      3 O          24.2414   70.7827   -2.9814 O.2     1  UNL1       -0.5170
      4 O          21.9554   71.8270   -3.7944 O.3     1  UNL1       -0.3112
      5 C          21.6767   73.1459   -4.2329 C.3     1  UNL1        0.1811
      6 O          20.9101   71.9345   -6.1614 O.3     1  UNL1       -0.3308
      7 O          21.1098   74.5344   -7.6418 O.3     1  UNL1       -0.3794
      8 O          18.4376   74.3423   -7.1335 O.3     1  UNL1       -0.3779
      9 C          20.7176   74.2922   -6.2908 C.3     1  UNL1        0.1713
     10 C          19.3268   73.6953   -6.2468 C.3     1  UNL1        0.1895
     11 C          21.5710   73.1519   -5.7513 C.3     1  UNL1        0.1764
     12 C          19.5907   72.2505   -6.6354 C.3     1  UNL1        0.2383
     13 H          22.0190   74.8787   -7.6224 H       1  UNL1        0.2105
     14 H          18.4083   75.2822   -6.8845 H       1  UNL1        0.2106
     15 O          18.1914   70.2491   -8.0537 O.2     1  UNL1       -0.2464
     16 O          16.0077   68.8256   -4.2532 O.2     1  UNL1       -0.2670
     17 N          18.6511   71.3427   -6.0417 N.ar    1  UNL1       -0.2551
     18 N          17.1045   69.5419   -6.1604 N.ar    1  UNL1       -0.2743
     19 C          18.0013   70.3746   -6.8426 C.ar    1  UNL1        0.3323
     20 C          18.3813   71.4170   -4.6797 C.ar    1  UNL1        0.0869
     21 C          17.5239   70.6154   -4.0439 C.ar    1  UNL1        0.0795
     22 C          16.8030   69.5779   -4.8078 C.ar    1  UNL1        0.2626
     23 H          16.6253   68.8387   -6.7163 H       1  UNL1        0.1734
     24 O          22.1618   71.0336   -1.4000 O.3     1  UNL1       -0.2703
     25 P          22.3939   71.0863    0.1987 P.3     1  UNL1        0.2208
     26 O          24.0045   71.0454    0.3414 O.3     1  UNL1       -0.4371
     27 O          21.6764   70.0094    0.9611 O.2     1  UNL1       -0.5170
     28 O          21.9844   72.5886    0.6222 O.3     1  UNL1       -0.2858
     29 O          23.1749   74.3569    1.6495 O.3     1  UNL1       -0.3226
     30 O          19.3945   74.7601    3.3303 O.3     1  UNL1       -0.3794
     31 O          20.5718   72.1194    2.9475 O.3     1  UNL1       -0.3775
     32 O          21.7439   76.2126    3.3069 O.3     1  UNL1       -0.3792
     33 C          20.3806   74.4660    2.3447 C.3     1  UNL1        0.1718
     34 C          21.2985   73.3377    2.8271 C.3     1  UNL1        0.1968
     35 C          21.2018   75.7295    2.0733 C.3     1  UNL1        0.1723
     36 C          22.4640   73.1311    1.8517 C.3     1  UNL1        0.2706
     37 C          22.3535   75.3995    1.1263 C.3     1  UNL1        0.1830
     38 H          18.8393   75.4795    2.9842 H       1  UNL1        0.2105
     39 H          21.1942   71.4347    3.2453 H       1  UNL1        0.2106
     40 H          22.4706   75.6255    3.5759 H       1  UNL1        0.2106
     41 O          23.1969   77.4050    2.0040 O.co2   1  UNL1       -0.5466
     42 O          23.9629   76.7655   -0.0457 O.co2   1  UNL1       -0.5466
     43 C          23.2587   76.5747    0.9352 C.2     1  UNL1        0.0799
@<TRIPOS>UNITY_ATOM_ATTR
41 1
charge -1
@<TRIPOS>BOND
     1     1     4    1
     2     1    24    1
     3     1     2    1
     4     1     3    2
     5    25    28    1
     6    25    24    1
     7    25    26    1
     8    25    27    2
     9     6    11    1
    10     6    12    1
    11    29    36    1
    12    29    37    1
    13     7     9    1
    14     7    13    1
    15     8    10    1
    16     8    14    1
    17     4     5    1
    18    28    36    1
    19    30    33    1
    20    30    38    1
    21    31    34    1
    22    31    39    1
    23    32    35    1
    24    32    40    1
    25    41    43   ar
    26    15    19    2
    27    42    43   ar
    28    16    22    2
    29    17    12    1
    30    17    19   ar
    31    17    20   ar
    32    18    19   ar
    33    18    22   ar
    34    18    23    1
    35     9    10    1
    36     9    11    1
    37    10    12    1
    38    11     5    1
    39    33    34    1
    40    33    35    1
    41    34    36    1
    42    35    37    1
    43    37    43    1
    44    20    21   ar
    45    21    22   ar
@<TRIPOS>MOLECULE
UDP-glaA
 43 45 0 0 0
SMALL
GASTEIGER

@<TRIPOS>ATOM
      1 P          21.8733   72.4437   -5.7515 P.3     1  UNL1        0.2189
      2 O          21.1919   73.8549   -5.3496 O.3     1  UNL1       -0.4371
      3 O          23.0883   72.5536   -6.6254 O.2     1  UNL1       -0.5170
      4 O          20.6485   71.5777   -6.3562 O.3     1  UNL1       -0.3112
      5 C          20.1214   71.9411   -7.6209 C.3     1  UNL1        0.1811
      6 O          18.8992   69.9183   -7.1867 O.3     1  UNL1       -0.3308
      7 O          18.0968   70.0046  -10.0746 O.3     1  UNL1       -0.3794
      8 O          15.8815   70.9710   -8.8118 O.3     1  UNL1       -0.3779
      9 C          18.2855   71.0817   -9.1571 C.3     1  UNL1        0.1713
     10 C          17.1320   71.1462   -8.1784 C.3     1  UNL1        0.1895
     11 C          19.4547   70.7253   -8.2485 C.3     1  UNL1        0.1764
     12 C          17.4658   70.0142   -7.2218 C.3     1  UNL1        0.2383
     13 H          18.8765   69.9782  -10.6550 H       1  UNL1        0.2105
     14 H          15.7928   71.6696   -9.4828 H       1  UNL1        0.2106
     15 O          16.2941   68.0503   -5.5648 O.2     1  UNL1       -0.2464
     16 O          15.6404   71.0663   -2.1421 O.2     1  UNL1       -0.2670
     17 N          16.9812   70.2583   -5.8933 N.ar    1  UNL1       -0.2551
     18 N          15.9689   69.5536   -3.8617 N.ar    1  UNL1       -0.2743
     19 C          16.4090   69.2032   -5.1449 C.ar    1  UNL1        0.3323
     20 C          17.0753   71.5324   -5.3444 C.ar    1  UNL1        0.0869
     21 C          16.6514   71.8504   -4.1192 C.ar    1  UNL1        0.0795
     22 C          16.0406   70.8064   -3.2727 C.ar    1  UNL1        0.2626
     23 H          15.5534   68.8110   -3.3058 H       1  UNL1        0.1734
     24 O          22.1368   71.7468   -4.3162 O.3     1  UNL1       -0.2703
     25 P          23.3194   71.9601   -3.2352 P.3     1  UNL1        0.2208
     26 O          23.9947   73.3562   -3.6946 O.3     1  UNL1       -0.4371
     27 O          24.2797   70.8094   -3.1376 O.2     1  UNL1       -0.5170
     28 O          22.5557   72.3097   -1.8573 O.3     1  UNL1       -0.2858
     29 O          23.1206   70.8119   -0.1147 O.3     1  UNL1       -0.3226
     30 O          20.0813   73.0570    1.6177 O.3     1  UNL1       -0.3794
     31 O          19.8864   72.1943   -1.1615 O.3     1  UNL1       -0.3775
     32 O          21.9021   71.1587    2.4609 O.3     1  UNL1       -0.3792
     33 C          21.2084   72.7656    0.7961 C.3     1  UNL1        0.1718
     34 C          20.8514   71.6957   -0.2412 C.3     1  UNL1        0.1968
     35 C          22.3543   72.2727    1.6841 C.3     1  UNL1        0.1723
     36 C          22.0989   71.2520   -1.0154 C.3     1  UNL1        0.2706
     37 C          23.5226   71.8208    0.8106 C.3     1  UNL1        0.1830
     38 H          20.3533   73.7353    2.2591 H       1  UNL1        0.2105
     39 H          19.6995   71.4877   -1.8023 H       1  UNL1        0.2106
     40 H          21.8306   70.3841    1.8776 H       1  UNL1        0.2106
     41 O          25.4479   72.1675    2.1054 O.co2   1  UNL1       -0.5466
     42 O          24.7431   70.0147    1.8489 O.co2   1  UNL1       -0.5466
     43 C          24.6147   71.2106    1.6302 C.2     1  UNL1        0.0799
@<TRIPOS>UNITY_ATOM_ATTR
41 1
charge -1
@<TRIPOS>BOND
     1     1     4    1
     2     1    24    1
     3     1     2    1
     4     1     3    2
     5    25    28    1
     6    25    24    1
     7    25    26    1
     8    25    27    2
     9     6    11    1
    10     6    12    1
    11    29    36    1
    12    29    37    1
    13     7     9    1
    14     7    13    1
    15     8    10    1
    16     8    14    1
    17     4     5    1
    18    28    36    1
    19    30    33    1
    20    30    38    1
    21    31    34    1
    22    31    39    1
    23    32    35    1
    24    32    40    1
    25    41    43   ar
    26    15    19    2
    27    42    43   ar
    28    16    22    2
    29    17    12    1
    30    17    19   ar
    31    17    20   ar
    32    18    19   ar
    33    18    22   ar
    34    18    23    1
    35     9    10    1
    36     9    11    1
    37    10    12    1
    38    11     5    1
    39    33    34    1
    40    33    35    1
    41    34    36    1
    42    35    37    1
    43    37    43    1
    44    20    21   ar
    45    21    22   ar
@<TRIPOS>MOLECULE
UDP-glaA
 43 45 0 0 0
SMALL
GASTEIGER

@<TRIPOS>ATOM
      1 P          20.6073   73.4343   -0.7364 P.3     1  UNL1        0.2189
      2 O          19.3717   73.3437    0.3040 O.3     1  UNL1       -0.4371
      3 O          21.5989   74.5232   -0.4480 O.2     1  UNL1       -0.5170
      4 O          19.8925   73.5003   -2.1856 O.3     1  UNL1       -0.3112
      5 C          20.6811   73.8334   -3.3153 C.3     1  UNL1        0.1811
      6 O          20.9967   71.5567   -4.0161 O.3     1  UNL1       -0.3308
      7 O          23.8804   72.2756   -4.4144 O.3     1  UNL1       -0.3794
      8 O          22.8920   72.3491   -6.9548 O.3     1  UNL1       -0.3779
      9 C          22.7132   73.0662   -4.6386 C.3     1  UNL1        0.1713
     10 C          21.9984   72.6039   -5.8908 C.3     1  UNL1        0.1895
     11 C          21.7015   72.7290   -3.5512 C.3     1  UNL1        0.1764
     12 C          21.2935   71.3482   -5.4067 C.3     1  UNL1        0.2383
     13 H          24.2824   72.5814   -3.5834 H       1  UNL1        0.2105
     14 H          23.3801   73.1719   -7.1305 H       1  UNL1        0.2106
     15 O          21.1054   69.8514   -7.7940 O.2     1  UNL1       -0.2464
     16 O          16.5436   70.4608   -8.0322 O.2     1  UNL1       -0.2670
     17 N          20.0696   71.0995   -6.1134 N.ar    1  UNL1       -0.2551
     18 N          18.8340   70.1563   -7.9113 N.ar    1  UNL1       -0.2743
     19 C          20.0838   70.3361   -7.3041 C.ar    1  UNL1        0.3323
     20 C          18.8716   71.6101   -5.6259 C.ar    1  UNL1        0.0869
     21 C          17.6881   71.4295   -6.2162 C.ar    1  UNL1        0.0795
     22 C          17.6159   70.6447   -7.4646 C.ar    1  UNL1        0.2626
     23 H          18.8202   69.6111   -8.7690 H       1  UNL1        0.1734
     24 O          21.2206   71.9384   -0.7017 O.3     1  UNL1       -0.2703
     25 P          22.2118   71.2230    0.3558 P.3     1  UNL1        0.2208
     26 O          23.5736   71.0177   -0.4924 O.3     1  UNL1       -0.4371
     27 O          21.6619   69.9629    0.9603 O.2     1  UNL1       -0.5170
     28 O          22.5678   72.3761    1.4271 O.3     1  UNL1       -0.2858
     29 O          24.0933   72.3625    3.2360 O.3     1  UNL1       -0.3226
     30 O          21.0747   74.8399    4.6608 O.3     1  UNL1       -0.3794
     31 O          20.4245   72.4209    3.1669 O.3     1  UNL1       -0.3775
     32 O          23.6087   74.0970    5.4711 O.3     1  UNL1       -0.3792
     33 C          21.9517   74.2292    3.7184 C.3     1  UNL1        0.1718
     34 C          21.7209   72.7149    3.6768 C.3     1  UNL1        0.1968
     35 C          23.3982   74.5278    4.1224 C.3     1  UNL1        0.1723
     36 C          22.7726   72.0291    2.7959 C.3     1  UNL1        0.2706
     37 C          24.3542   73.7649    3.2079 C.3     1  UNL1        0.1830
     38 H          21.2572   75.7950    4.6553 H       1  UNL1        0.2105
     39 H          20.3282   71.4538    3.1504 H       1  UNL1        0.2106
     40 H          23.6555   73.1260    5.4815 H       1  UNL1        0.2106
     41 O          26.5371   72.9057    3.1801 O.co2   1  UNL1       -0.5466
     42 O          26.1993   74.8449    4.3300 O.co2   1  UNL1       -0.5466
     43 C          25.7751   73.9241    3.6469 C.2     1  UNL1        0.0799
@<TRIPOS>UNITY_ATOM_ATTR
41 1
charge -1
@<TRIPOS>BOND
     1     1     4    1
     2     1    24    1
     3     1     2    1
     4     1     3    2
     5    25    28    1
     6    25    24    1
     7    25    26    1
     8    25    27    2
     9     6    11    1
    10     6    12    1
    11    29    36    1
    12    29    37    1
    13     7     9    1
    14     7    13    1
    15     8    10    1
    16     8    14    1
    17     4     5    1
    18    28    36    1
    19    30    33    1
    20    30    38    1
    21    31    34    1
    22    31    39    1
    23    32    35    1
    24    32    40    1
    25    41    43   ar
    26    15    19    2
    27    42    43   ar
    28    16    22    2
    29    17    12    1
    30    17    19   ar
    31    17    20   ar
    32    18    19   ar
    33    18    22   ar
    34    18    23    1
    35     9    10    1
    36     9    11    1
    37    10    12    1
    38    11     5    1
    39    33    34    1
    40    33    35    1
    41    34    36    1
    42    35    37    1
    43    37    43    1
    44    20    21   ar
    45    21    22   ar
@<TRIPOS>MOLECULE
UDP-glaA
 43 45 0 0 0
SMALL
GASTEIGER

@<TRIPOS>ATOM
      1 P          23.2947   74.7783   -1.6517 P.3     1  UNL1        0.2189
      2 O          24.8331   74.6424   -2.1334 O.3     1  UNL1       -0.4371
      3 O          22.7066   76.1519   -1.7915 O.2     1  UNL1       -0.5170
      4 O          23.2991   74.1646   -0.1554 O.3     1  UNL1       -0.3112
      5 C          22.2131   74.4666    0.7039 C.3     1  UNL1        0.1811
      6 O          22.7226   72.1925    1.2897 O.3     1  UNL1       -0.3308
      7 O          20.2438   72.2680    2.9752 O.3     1  UNL1       -0.3794
      8 O          22.2260   72.6142    4.8155 O.3     1  UNL1       -0.3779
      9 C          21.1963   73.3009    2.7229 C.3     1  UNL1        0.1713
     10 C          22.4743   73.0355    3.4902 C.3     1  UNL1        0.1895
     11 C          21.6591   73.1703    1.2778 C.3     1  UNL1        0.1764
     12 C          23.1302   71.9551    2.6472 C.3     1  UNL1        0.2383
     13 H          19.4588   72.4592    2.4340 H       1  UNL1        0.2105
     14 H          21.7101   73.3132    5.2530 H       1  UNL1        0.2106
     15 O          24.8230   69.7729    2.0574 O.2     1  UNL1       -0.2464
     16 O          28.6135   72.2339    2.9597 O.2     1  UNL1       -0.2670
     17 N          24.5628   71.9978    2.7191 N.ar    1  UNL1       -0.2551
     18 N          26.7094   70.9997    2.5076 N.ar    1  UNL1       -0.2743
     19 C          25.3206   70.8460    2.4032 C.ar    1  UNL1        0.3323
     20 C          25.2030   73.1719    3.0996 C.ar    1  UNL1        0.0869
     21 C          26.5281   73.3027    3.1940 C.ar    1  UNL1        0.0795
     22 C          27.3919   72.1467    2.8822 C.ar    1  UNL1        0.2626
     23 H          27.2743   70.1844    2.2858 H       1  UNL1        0.1734
     24 O          22.5433   73.6332   -2.5116 O.3     1  UNL1       -0.2703
     25 P          23.1073   72.2866   -3.2051 P.3     1  UNL1        0.2208
     26 O          23.5716   71.3863   -1.9442 O.3     1  UNL1       -0.4371
     27 O          24.1822   72.5237   -4.2269 O.2     1  UNL1       -0.5170
     28 O          21.7956   71.5415   -3.7780 O.3     1  UNL1       -0.2858
     29 O          20.7259   72.1391   -5.8024 O.3     1  UNL1       -0.3226
     30 O          17.6668   70.2346   -3.7301 O.3     1  UNL1       -0.3794
     31 O          19.4879   72.0463   -2.3490 O.3     1  UNL1       -0.3775
     32 O          18.0542   71.2081   -6.2859 O.3     1  UNL1       -0.3792
     33 C          18.9925   70.5156   -4.1705 C.3     1  UNL1        0.1718
     34 C          19.4003   71.9362   -3.7657 C.3     1  UNL1        0.1968
     35 C          19.0501   70.3679   -5.6934 C.3     1  UNL1        0.1723
     36 C          20.7548   72.3088   -4.3814 C.3     1  UNL1        0.2706
     37 C          20.4239   70.8024   -6.1995 C.3     1  UNL1        0.1830
     38 H          17.4507   69.3286   -4.0096 H       1  UNL1        0.2105
     39 H          19.7572   72.9570   -2.1416 H       1  UNL1        0.2106
     40 H          18.3508   72.1317   -6.2211 H       1  UNL1        0.2106
     41 O          21.1857   71.8635   -8.1483 O.co2   1  UNL1       -0.5466
     42 O          19.9733   69.9513   -8.4137 O.co2   1  UNL1       -0.5466
     43 C          20.4831   70.7979   -7.6940 C.2     1  UNL1        0.0799
@<TRIPOS>UNITY_ATOM_ATTR
41 1
charge -1
@<TRIPOS>BOND
     1     1     4    1
     2     1    24    1
     3     1     2    1
     4     1     3    2
     5    25    28    1
     6    25    24    1
     7    25    26    1
     8    25    27    2
     9     6    11    1
    10     6    12    1
    11    29    36    1
    12    29    37    1
    13     7     9    1
    14     7    13    1
    15     8    10    1
    16     8    14    1
    17     4     5    1
    18    28    36    1
    19    30    33    1
    20    30    38    1
    21    31    34    1
    22    31    39    1
    23    32    35    1
    24    32    40    1
    25    41    43   ar
    26    15    19    2
    27    42    43   ar
    28    16    22    2
    29    17    12    1
    30    17    19   ar
    31    17    20   ar
    32    18    19   ar
    33    18    22   ar
    34    18    23    1
    35     9    10    1
    36     9    11    1
    37    10    12    1
    38    11     5    1
    39    33    34    1
    40    33    35    1
    41    34    36    1
    42    35    37    1
    43    37    43    1
    44    20    21   ar
    45    21    22   ar
@<TRIPOS>MOLECULE
UDP-glaA
 43 45 0 0 0
SMALL
GASTEIGER

@<TRIPOS>ATOM
      1 P          23.4306   72.2529   -3.4985 P.3     1  UNL1        0.2189
      2 O          24.1564   70.8446   -3.1710 O.3     1  UNL1       -0.4371
      3 O          24.3303   73.3118   -4.0654 O.2     1  UNL1       -0.5170
      4 O          22.6791   72.6342   -2.1181 O.3     1  UNL1       -0.3112
      5 C          23.4480   72.7247   -0.9308 C.3     1  UNL1        0.1811
      6 O          24.4493   71.2408    0.6723 O.3     1  UNL1       -0.3308
      7 O          21.6787   70.2048    1.1646 O.3     1  UNL1       -0.3794
      8 O          22.0730   71.8796    3.2801 O.3     1  UNL1       -0.3779
      9 C          22.1072   71.5351    0.8737 C.3     1  UNL1        0.1713
     10 C          22.7774   72.1477    2.0854 C.3     1  UNL1        0.1895
     11 C          23.2591   71.4510   -0.1191 C.3     1  UNL1        0.1764
     12 C          24.1468   71.4906    2.0548 C.3     1  UNL1        0.2383
     13 H          21.2921   69.8403    0.3503 H       1  UNL1        0.2105
     14 H          21.1742   72.2368    3.1765 H       1  UNL1        0.2106
     15 O          26.8409   70.7124    2.3888 O.2     1  UNL1       -0.2464
     16 O          27.9836   74.7889    4.2095 O.2     1  UNL1       -0.2670
     17 N          25.1695   72.3285    2.6128 N.ar    1  UNL1       -0.2551
     18 N          27.4080   72.7427    3.2957 N.ar    1  UNL1       -0.2743
     19 C          26.4916   71.8416    2.7377 C.ar    1  UNL1        0.3323
     20 C          24.8582   73.6179    3.0298 C.ar    1  UNL1        0.0869
     21 C          25.7433   74.4652    3.5594 C.ar    1  UNL1        0.0795
     22 C          27.1456   74.0343    3.7254 C.ar    1  UNL1        0.2626
     23 H          28.3646   72.4139    3.3956 H       1  UNL1        0.1734
     24 O          22.2115   71.8157   -4.4669 O.3     1  UNL1       -0.2703
     25 P          21.1917   72.7022   -5.3538 P.3     1  UNL1        0.2208
     26 O          21.4833   72.2030   -6.8644 O.3     1  UNL1       -0.4371
     27 O          21.3292   74.1843   -5.1531 O.2     1  UNL1       -0.5170
     28 O          19.7297   72.1151   -5.0048 O.3     1  UNL1       -0.2858
     29 O          18.9329   69.8922   -4.8524 O.3     1  UNL1       -0.3226
     30 O          15.6242   71.9015   -6.3672 O.3     1  UNL1       -0.3794
     31 O          18.3049   72.5213   -7.3345 O.3     1  UNL1       -0.3775
     32 O          16.1633   69.3719   -5.3976 O.3     1  UNL1       -0.3792
     33 C          16.8109   71.6895   -5.6075 C.3     1  UNL1        0.1718
     34 C          17.9922   71.3855   -6.5351 C.3     1  UNL1        0.1968
     35 C          16.5824   70.5176   -4.6489 C.3     1  UNL1        0.1723
     36 C          19.2315   70.9878   -5.7239 C.3     1  UNL1        0.2706
     37 C          17.8862   70.1831   -3.9275 C.3     1  UNL1        0.1830
     38 H          14.9041   72.0876   -5.7408 H       1  UNL1        0.2105
     39 H          19.0620   72.2851   -7.8965 H       1  UNL1        0.2106
     40 H          16.9319   69.0171   -5.8756 H       1  UNL1        0.2106
     41 O          17.1226   69.2612   -1.9098 O.co2   1  UNL1       -0.5466
     42 O          18.1267   67.8426   -3.3851 O.co2   1  UNL1       -0.5466
     43 C          17.7428   68.9615   -3.0765 C.2     1  UNL1        0.0799
@<TRIPOS>UNITY_ATOM_ATTR
41 1
charge -1
@<TRIPOS>BOND
     1     1     4    1
     2     1    24    1
     3     1     2    1
     4     1     3    2
     5    25    28    1
     6    25    24    1
     7    25    26    1
     8    25    27    2
     9     6    11    1
    10     6    12    1
    11    29    36    1
    12    29    37    1
    13     7     9    1
    14     7    13    1
    15     8    10    1
    16     8    14    1
    17     4     5    1
    18    28    36    1
    19    30    33    1
    20    30    38    1
    21    31    34    1
    22    31    39    1
    23    32    35    1
    24    32    40    1
    25    41    43   ar
    26    15    19    2
    27    42    43   ar
    28    16    22    2
    29    17    12    1
    30    17    19   ar
    31    17    20   ar
    32    18    19   ar
    33    18    22   ar
    34    18    23    1
    35     9    10    1
    36     9    11    1
    37    10    12    1
    38    11     5    1
    39    33    34    1
    40    33    35    1
    41    34    36    1
    42    35    37    1
    43    37    43    1
    44    20    21   ar
    45    21    22   ar
@<TRIPOS>MOLECULE
UDP-glaA
 43 45 0 0 0
SMALL
GASTEIGER

@<TRIPOS>ATOM
      1 P          21.0454   74.3625   -4.6136 P.3     1  UNL1        0.2189
      2 O          20.5716   75.9074   -4.6920 O.3     1  UNL1       -0.4371
      3 O          21.0058   73.6213   -5.9180 O.2     1  UNL1       -0.5170
      4 O          20.1458   73.7388   -3.4232 O.3     1  UNL1       -0.3112
      5 C          20.0066   72.3303   -3.3460 C.3     1  UNL1        0.1811
      6 O          17.9236   72.1273   -4.5266 O.3     1  UNL1       -0.3308
      7 O          16.9870   70.4696   -2.2101 O.3     1  UNL1       -0.3794
      8 O          17.6061   68.5839   -4.0800 O.3     1  UNL1       -0.3779
      9 C          18.2828   70.5401   -2.8048 C.3     1  UNL1        0.1713
     10 C          18.2895   69.8189   -4.1362 C.3     1  UNL1        0.1895
     11 C          18.5297   71.9837   -3.2231 C.3     1  UNL1        0.1764
     12 C          17.6031   70.8253   -5.0439 C.3     1  UNL1        0.2383
     13 H          17.0206   70.9769   -1.3811 H       1  UNL1        0.2105
     14 H          18.0403   68.0398   -3.4006 H       1  UNL1        0.2106
     15 O          20.2901   70.4031   -5.8035 O.2     1  UNL1       -0.2464
     16 O          19.2306   70.5081  -10.2873 O.2     1  UNL1       -0.2670
     17 N          18.0574   70.7375   -6.4023 N.ar    1  UNL1       -0.2551
     18 N          19.7608   70.4562   -8.0357 N.ar    1  UNL1       -0.2743
     19 C          19.4286   70.5245   -6.6763 C.ar    1  UNL1        0.3323
     20 C          17.1481   70.8624   -7.4468 C.ar    1  UNL1        0.0869
     21 C          17.4804   70.7945   -8.7378 C.ar    1  UNL1        0.0795
     22 C          18.8922   70.5748   -9.1096 C.ar    1  UNL1        0.2626
     23 H          20.7413   70.3041   -8.2564 H       1  UNL1        0.1734
     24 O          22.5132   74.4672   -3.9429 O.3     1  UNL1       -0.2703
     25 P          23.6508   73.3448   -3.7006 P.3     1  UNL1        0.2208
     26 O          25.0301   74.1759   -3.8513 O.3     1  UNL1       -0.4371
     27 O          23.5429   72.1527   -4.6077 O.2     1  UNL1       -0.5170
     28 O          23.5534   72.9968   -2.1279 O.3     1  UNL1       -0.2858
     29 O          21.9273   73.0249   -0.4090 O.3     1  UNL1       -0.3226
     30 O          25.1736   74.8545    1.4331 O.3     1  UNL1       -0.3794
     31 O          24.5052   75.4656   -1.3392 O.3     1  UNL1       -0.3775
     32 O          22.6921   73.9212    2.2083 O.3     1  UNL1       -0.3792
     33 C          24.4685   73.9648    0.5720 C.3     1  UNL1        0.1718
     34 C          23.6475   74.7528   -0.4543 C.3     1  UNL1        0.1968
     35 C          23.5441   73.0852    1.4183 C.3     1  UNL1        0.1723
     36 C          22.7538   73.8124   -1.2725 C.3     1  UNL1        0.2706
     37 C          22.6762   72.2237    0.5036 C.3     1  UNL1        0.1830
     38 H          25.6761   74.3137    2.0660 H       1  UNL1        0.2105
     39 H          23.9427   75.9398   -1.9744 H       1  UNL1        0.2106
     40 H          22.0203   74.3152    1.6264 H       1  UNL1        0.2106
     41 O          21.7335   70.1263    0.9684 O.co2   1  UNL1       -0.5466
     42 O          20.8881   71.9177    2.0969 O.co2   1  UNL1       -0.5466
     43 C          21.6670   71.4424    1.2833 C.2     1  UNL1        0.0799
@<TRIPOS>UNITY_ATOM_ATTR
41 1
charge -1
@<TRIPOS>BOND
     1     1     4    1
     2     1    24    1
     3     1     2    1
     4     1     3    2
     5    25    28    1
     6    25    24    1
     7    25    26    1
     8    25    27    2
     9     6    11    1
    10     6    12    1
    11    29    36    1
    12    29    37    1
    13     7     9    1
    14     7    13    1
    15     8    10    1
    16     8    14    1
    17     4     5    1
    18    28    36    1
    19    30    33    1
    20    30    38    1
    21    31    34    1
    22    31    39    1
    23    32    35    1
    24    32    40    1
    25    41    43   ar
    26    15    19    2
    27    42    43   ar
    28    16    22    2
    29    17    12    1
    30    17    19   ar
    31    17    20   ar
    32    18    19   ar
    33    18    22   ar
    34    18    23    1
    35     9    10    1
    36     9    11    1
    37    10    12    1
    38    11     5    1
    39    33    34    1
    40    33    35    1
    41    34    36    1
    42    35    37    1
    43    37    43    1
    44    20    21   ar
    45    21    22   ar
@<TRIPOS>MOLECULE
UDP-glaA
 43 45 0 0 0
SMALL
GASTEIGER

@<TRIPOS>ATOM
      1 P          23.4004   72.2687   -3.6178 P.3     1  UNL1        0.2189
      2 O          23.8814   70.7518   -3.3264 O.3     1  UNL1       -0.4371
      3 O          24.4889   73.2052   -4.0541 O.2     1  UNL1       -0.5170
      4 O          22.6069   72.6910   -2.2733 O.3     1  UNL1       -0.3112
      5 C          23.3199   72.7266   -1.0488 C.3     1  UNL1        0.1811
      6 O          24.3196   71.0763    0.3834 O.3     1  UNL1       -0.3308
      7 O          21.5223   70.1943    1.0070 O.3     1  UNL1       -0.3794
      8 O          22.1741   71.6944    3.1889 O.3     1  UNL1       -0.3779
      9 C          22.0227   71.5099    0.7694 C.3     1  UNL1        0.1713
     10 C          22.8140   71.9948    1.9659 C.3     1  UNL1        0.1895
     11 C          23.0967   71.4168   -0.3064 C.3     1  UNL1        0.1764
     12 C          24.1287   71.2525    1.7969 C.3     1  UNL1        0.2383
     13 H          21.0573   69.9112    0.2012 H       1  UNL1        0.2105
     14 H          21.2977   72.1160    3.1720 H       1  UNL1        0.2106
     15 O          24.0728   74.0004    2.4461 O.2     1  UNL1       -0.2464
     16 O          28.4653   73.9476    3.8397 O.2     1  UNL1       -0.2670
     17 N          25.2428   71.9821    2.3314 N.ar    1  UNL1       -0.2551
     18 N          26.2603   73.9724    3.1391 N.ar    1  UNL1       -0.2743
     19 C          25.1108   73.3600    2.6225 C.ar    1  UNL1        0.3323
     20 C          26.4505   71.3326    2.5618 C.ar    1  UNL1        0.0869
     21 C          27.5372   71.9303    3.0552 C.ar    1  UNL1        0.0795
     22 C          27.4835   73.3683    3.3851 C.ar    1  UNL1        0.2626
     23 H          26.1887   74.9630    3.3553 H       1  UNL1        0.1734
     24 O          22.2104   72.0709   -4.6948 O.3     1  UNL1       -0.2703
     25 P          20.8026   71.2840   -4.5868 P.3     1  UNL1        0.2208
     26 O          19.8457   72.3388   -3.8201 O.3     1  UNL1       -0.4371
     27 O          20.8980   69.9390   -3.9253 O.2     1  UNL1       -0.5170
     28 O          20.2389   71.2450   -6.0983 O.3     1  UNL1       -0.2858
     29 O          17.9227   70.7653   -6.0321 O.3     1  UNL1       -0.3226
     30 O          18.6498   70.9870  -10.1189 O.3     1  UNL1       -0.3794
     31 O          20.5538   69.6707   -8.3445 O.3     1  UNL1       -0.3775
     32 O          16.4318   70.7874   -8.4847 O.3     1  UNL1       -0.3792
     33 C          18.7818   71.2882   -8.7325 C.3     1  UNL1        0.1718
     34 C          19.2367   70.0473   -7.9569 C.3     1  UNL1        0.1968
     35 C          17.4304   71.7726   -8.2001 C.3     1  UNL1        0.1723
     36 C          19.2160   70.3130   -6.4464 C.3     1  UNL1        0.2706
     37 C          17.5138   71.9649   -6.6874 C.3     1  UNL1        0.1830
     38 H          18.3586   71.7983  -10.5689 H       1  UNL1        0.2105
     39 H          20.8013   68.8893   -7.8220 H       1  UNL1        0.2106
     40 H          16.5603   70.0345   -7.8832 H       1  UNL1        0.2106
     41 O          16.1517   72.0410   -4.7788 O.co2   1  UNL1       -0.5466
     42 O          15.2423   72.7820   -6.7334 O.co2   1  UNL1       -0.5466
     43 C          16.1806   72.3131   -6.1057 C.2     1  UNL1        0.0799
@<TRIPOS>UNITY_ATOM_ATTR
41 1
charge -1
@<TRIPOS>BOND
     1     1     4    1
     2     1    24    1
     3     1     2    1
     4     1     3    2
     5    25    28    1
     6    25    24    1
     7    25    26    1
     8    25    27    2
     9     6    11    1
    10     6    12    1
    11    29    36    1
    12    29    37    1
    13     7     9    1
    14     7    13    1
    15     8    10    1
    16     8    14    1
    17     4     5    1
    18    28    36    1
    19    30    33    1
    20    30    38    1
    21    31    34    1
    22    31    39    1
    23    32    35    1
    24    32    40    1
    25    41    43   ar
    26    15    19    2
    27    42    43   ar
    28    16    22    2
    29    17    12    1
    30    17    19   ar
    31    17    20   ar
    32    18    19   ar
    33    18    22   ar
    34    18    23    1
    35     9    10    1
    36     9    11    1
    37    10    12    1
    38    11     5    1
    39    33    34    1
    40    33    35    1
    41    34    36    1
    42    35    37    1
    43    37    43    1
    44    20    21   ar
    45    21    22   ar
@<TRIPOS>MOLECULE
UDP-glaA
 43 45 0 0 0
SMALL
GASTEIGER

@<TRIPOS>ATOM
      1 P          23.2147   72.1412   -2.8974 P.3     1  UNL1        0.2189
      2 O          24.1732   70.8410   -2.9879 O.3     1  UNL1       -0.4371
      3 O          23.9350   73.4573   -2.8610 O.2     1  UNL1       -0.5170
      4 O          22.2545   71.8303   -1.6337 O.3     1  UNL1       -0.3112
      5 C          22.7052   70.9154   -0.6493 C.3     1  UNL1        0.1811
      6 O          22.8374   70.8785    1.7497 O.3     1  UNL1       -0.3308
      7 O          20.4213   72.6542    1.7235 O.3     1  UNL1       -0.3794
      8 O          22.4509   74.4169    2.1811 O.3     1  UNL1       -0.3779
      9 C          21.5290   72.6229    0.8237 C.3     1  UNL1        0.1713
     10 C          22.7528   73.2306    1.4760 C.3     1  UNL1        0.1895
     11 C          21.9501   71.1699    0.6474 C.3     1  UNL1        0.1764
     12 C          23.2130   72.1085    2.3910 C.3     1  UNL1        0.2383
     13 H          19.6737   72.2205    1.2780 H       1  UNL1        0.2105
     14 H          22.0619   75.0434    1.5468 H       1  UNL1        0.2106
     15 O          24.8922   69.8743    1.9862 O.2     1  UNL1       -0.2464
     16 O          28.6500   72.2477    3.2047 O.2     1  UNL1       -0.2670
     17 N          24.6335   72.1146    2.5942 N.ar    1  UNL1       -0.2551
     18 N          26.7623   71.0575    2.5937 N.ar    1  UNL1       -0.2743
     19 C          25.3853   70.9388    2.3634 C.ar    1  UNL1        0.3323
     20 C          25.2681   73.2769    3.0181 C.ar    1  UNL1        0.0869
     21 C          26.5820   73.3742    3.2327 C.ar    1  UNL1        0.0795
     22 C          27.4387   72.1915    3.0158 C.ar    1  UNL1        0.2626
     23 H          27.3226   70.2245    2.4348 H       1  UNL1        0.1734
     24 O          22.2244   71.9502   -4.1615 O.3     1  UNL1       -0.2703
     25 P          21.9099   72.9175   -5.4177 P.3     1  UNL1        0.2208
     26 O          22.9531   72.4120   -6.5456 O.3     1  UNL1       -0.4371
     27 O          21.9986   74.3835   -5.1035 O.2     1  UNL1       -0.5170
     28 O          20.4654   72.4366   -5.9525 O.3     1  UNL1       -0.2858
     29 O          19.3796   70.3761   -5.5341 O.3     1  UNL1       -0.3226
     30 O          17.8612   71.4200   -9.2603 O.3     1  UNL1       -0.3794
     31 O          20.6800   71.8376   -8.6391 O.3     1  UNL1       -0.3775
     32 O          17.3532   69.4813   -7.3594 O.3     1  UNL1       -0.3792
     33 C          18.3651   71.5967   -7.9392 C.3     1  UNL1        0.1718
     34 C          19.7970   71.0603   -7.8373 C.3     1  UNL1        0.1968
     35 C          17.4555   70.8516   -6.9585 C.3     1  UNL1        0.1723
     36 C          20.2853   71.0883   -6.3836 C.3     1  UNL1        0.2706
     37 C          18.0565   70.9096   -5.5558 C.3     1  UNL1        0.1830
     38 H          16.9543   71.7703   -9.2776 H       1  UNL1        0.2105
     39 H          21.5728   71.4676   -8.5354 H       1  UNL1        0.2106
     40 H          18.1894   69.0338   -7.1460 H       1  UNL1        0.2106
     41 O          16.7374   70.8653   -3.6163 O.co2   1  UNL1       -0.5466
     42 O          17.1170   68.8741   -4.6593 O.co2   1  UNL1       -0.5466
     43 C          17.2686   70.0850   -4.5882 C.2     1  UNL1        0.0799
@<TRIPOS>UNITY_ATOM_ATTR
41 1
charge -1
@<TRIPOS>BOND
     1     1     4    1
     2     1    24    1
     3     1     2    1
     4     1     3    2
     5    25    28    1
     6    25    24    1
     7    25    26    1
     8    25    27    2
     9     6    11    1
    10     6    12    1
    11    29    36    1
    12    29    37    1
    13     7     9    1
    14     7    13    1
    15     8    10    1
    16     8    14    1
    17     4     5    1
    18    28    36    1
    19    30    33    1
    20    30    38    1
    21    31    34    1
    22    31    39    1
    23    32    35    1
    24    32    40    1
    25    41    43   ar
    26    15    19    2
    27    42    43   ar
    28    16    22    2
    29    17    12    1
    30    17    19   ar
    31    17    20   ar
    32    18    19   ar
    33    18    22   ar
    34    18    23    1
    35     9    10    1
    36     9    11    1
    37    10    12    1
    38    11     5    1
    39    33    34    1
    40    33    35    1
    41    34    36    1
    42    35    37    1
    43    37    43    1
    44    20    21   ar
    45    21    22   ar
