@<TRIPOS>MOLECULE
*****
 43 45 0 0 0
SMALL
GASTEIGER

@<TRIPOS>ATOM
      1 P          22.9297   71.5548   -2.7149 P.3     1  UNL1        0.2189
      2 O          23.0484   73.1157   -2.3043 O.co2   1  UNL1       -0.4371
      3 O          24.1992   70.9343   -3.2201 O.2     1  UNL1       -0.5170
      4 O          21.6742   71.5158   -3.7348 O.3     1  UNL1       -0.3112
      5 C          20.8011   70.4022   -3.6899 C.3     1  UNL1        0.1811
      6 O          18.9229   71.5655   -4.6368 O.3     1  UNL1       -0.3308
      7 O          17.2851   70.3088   -2.4619 O.3     1  UNL1       -0.3794
      8 O          16.7106   68.7442   -4.6202 O.3     1  UNL1       -0.3779
      9 C          18.3886   69.7684   -3.1892 C.3     1  UNL1        0.1713
     10 C          17.9607   69.4008   -4.5942 C.3     1  UNL1        0.1895
     11 C          19.3810   70.8949   -3.4428 C.3     1  UNL1        0.1764
     12 C          17.9231   70.7571   -5.2775 C.3     1  UNL1        0.2383
     13 H          16.6374   69.6074   -2.2880 H       1  UNL1        0.2105
     14 H          16.7869   67.8860   -4.1734 H       1  UNL1        0.2106
     15 O          16.0051   70.2339   -7.2834 O.2     1  UNL1       -0.2464
     16 O          19.1718   70.4559  -10.6251 O.2     1  UNL1       -0.2670
     17 N          18.2190   70.6727   -6.6797 N.ar    1  UNL1       -0.2551
     18 N          17.5843   70.3439   -8.9458 N.ar    1  UNL1       -0.2743
     19 C          17.1825   70.4051   -7.6049 C.ar    1  UNL1        0.3323
     20 C          19.5223   70.8557   -7.1257 C.ar    1  UNL1        0.0869
     21 C          19.8899   70.7945   -8.4071 C.ar    1  UNL1        0.0795
     22 C          18.8677   70.5183   -9.4377 C.ar    1  UNL1        0.2626
     23 H          16.8805   70.1568   -9.6083 H       1  UNL1        0.1734
     24 O          22.3324   70.8721   -1.3770 O.3     1  UNL1       -0.2703
     25 P          21.7228   71.5291   -0.0315 P.3     1  UNL1        0.2208
     26 O          21.1399   70.2510    0.7729 O.co2   1  UNL1       -0.4371
     27 O          20.7168   72.6159   -0.2780 O.2     1  UNL1       -0.5170
     28 O          23.0132   71.9916    0.8191 O.3     1  UNL1       -0.2858
     29 O          24.5869   71.2557    2.4287 O.3     1  UNL1       -0.3226
     30 O          22.9628   74.5655    4.2930 O.3     1  UNL1       -0.3794
     31 O          21.2496   72.6866    2.8545 O.3     1  UNL1       -0.3775
     32 O          25.6092   74.7151    3.0993 O.3     1  UNL1       -0.3792
     33 C          23.3931   73.7736    3.1858 C.3     1  UNL1        0.1718
     34 C          22.6183   72.4557    3.1674 C.3     1  UNL1        0.1968
     35 C          24.8914   73.5080    3.3484 C.3     1  UNL1        0.1723
     36 C          23.2080   71.4888    2.1397 C.3     1  UNL1        0.2706
     37 C          25.3773   72.4411    2.3716 C.3     1  UNL1        0.1830
     38 H          22.0132   74.7470    4.2112 H       1  UNL1        0.2105
     39 H          20.8691   73.2995    3.5025 H       1  UNL1        0.2106
     40 H          25.3093   75.4025    3.7144 H       1  UNL1        0.2106
     41 O          27.3673   72.8611    3.5398 O.co2   1  UNL1       -0.5466
     42 O          27.2247   70.8895    2.4034 O.co2   1  UNL1       -0.5466
     43 C          26.7384   71.9554    2.7504 C.2     1  UNL1        0.0799
@<TRIPOS>UNITY_ATOM_ATTR
2 1
charge -1
26 1
charge -1
41 1
charge -1
@<TRIPOS>BOND
     1     1     4    1
     2     1    24    1
     3     1     2    1
     4     1     3    2
     5    25    28    1
     6    25    24    1
     7    25    26    1
     8    25    27    2
     9     6    11    1
    10     6    12    1
    11    29    36    1
    12    29    37    1
    13     7     9    1
    14     7    13    1
    15     8    10    1
    16     8    14    1
    17     4     5    1
    18    28    36    1
    19    30    33    1
    20    30    38    1
    21    31    34    1
    22    31    39    1
    23    32    35    1
    24    32    40    1
    25    41    43   ar
    26    15    19    2
    27    42    43   ar
    28    16    22    2
    29    17    12    1
    30    17    19   ar
    31    17    20   ar
    32    18    19   ar
    33    18    22   ar
    34    18    23    1
    35     9    10    1
    36     9    11    1
    37    10    12    1
    38    11     5    1
    39    33    34    1
    40    33    35    1
    41    34    36    1
    42    35    37    1
    43    37    43    1
    44    20    21   ar
    45    21    22   ar
@<TRIPOS>MOLECULE
*****
 43 45 0 0 0
SMALL
GASTEIGER

@<TRIPOS>ATOM
      1 P          21.2162   73.8899   -5.0545 P.3     1  UNL1        0.2189
      2 O          21.9904   75.1947   -4.4915 O.co2   1  UNL1       -0.4371
      3 O          21.0067   73.8696   -6.5403 O.2     1  UNL1       -0.5170
      4 O          19.8736   73.8163   -4.1546 O.3     1  UNL1       -0.3112
      5 C          18.6221   73.9979   -4.7912 C.3     1  UNL1        0.1811
      6 O          17.1013   72.2829   -5.5147 O.3     1  UNL1       -0.3308
      7 O          17.3895   71.1263   -2.7632 O.3     1  UNL1       -0.3794
      8 O          19.0319   69.5383   -4.2521 O.3     1  UNL1       -0.3779
      9 C          18.3658   71.7771   -3.5767 C.3     1  UNL1        0.1713
     10 C          18.8103   70.8604   -4.6966 C.3     1  UNL1        0.1895
     11 C          17.6711   72.8974   -4.3387 C.3     1  UNL1        0.1764
     12 C          17.6474   70.9633   -5.6687 C.3     1  UNL1        0.2383
     13 H          17.8099   70.4064   -2.2666 H       1  UNL1        0.2105
     14 H          19.7819   69.5258   -3.6362 H       1  UNL1        0.2106
     15 O          15.9071   70.2430   -7.7732 O.2     1  UNL1       -0.2464
     16 O          19.3256   70.3011  -10.8642 O.2     1  UNL1       -0.2670
     17 N          18.0562   70.7835   -7.0331 N.ar    1  UNL1       -0.2551
     18 N          17.6116   70.2716   -9.3105 N.ar    1  UNL1       -0.2743
     19 C          17.1027   70.4210   -8.0137 C.ar    1  UNL1        0.3323
     20 C          19.3869   70.9673   -7.3884 C.ar    1  UNL1        0.0869
     21 C          19.8570   70.8214   -8.6288 C.ar    1  UNL1        0.0795
     22 C          18.9264   70.4430   -9.7124 C.ar    1  UNL1        0.2626
     23 H          16.9670   70.0175  -10.0100 H       1  UNL1        0.1734
     24 O          22.1044   72.6663   -4.4830 O.3     1  UNL1       -0.2703
     25 P          23.4129   72.6574   -3.5336 P.3     1  UNL1        0.2208
     26 O          24.3965   73.7253   -4.2494 O.co2   1  UNL1       -0.4371
     27 O          24.0179   71.2983   -3.3316 O.2     1  UNL1       -0.5170
     28 O          22.9383   73.3875   -2.1756 O.3     1  UNL1       -0.2858
     29 O          21.8235   71.8879   -0.7203 O.3     1  UNL1       -0.3226
     30 O          21.3423   75.4865    1.2510 O.3     1  UNL1       -0.3794
     31 O          21.0206   75.3318   -1.6484 O.3     1  UNL1       -0.3775
     32 O          23.2855   73.5473    2.2073 O.3     1  UNL1       -0.3792
     33 C          22.0064   74.5345    0.4200 C.3     1  UNL1        0.1718
     34 C          21.1258   74.2052   -0.7856 C.3     1  UNL1        0.1968
     35 C          22.2610   73.2761    1.2527 C.3     1  UNL1        0.1723
     36 C          21.6965   73.0257   -1.5741 C.3     1  UNL1        0.2706
     37 C          22.7072   72.1091    0.3766 C.3     1  UNL1        0.1830
     38 H          21.1700   76.2949    0.7430 H       1  UNL1        0.2105
     39 H          20.6593   76.0841   -1.1546 H       1  UNL1        0.2106
     40 H          23.0140   74.2883    2.7713 H       1  UNL1        0.2106
     41 O          23.7837   70.6033    1.8171 O.co2   1  UNL1       -0.5466
     42 O          21.6754   70.0646    1.1360 O.co2   1  UNL1       -0.5466
     43 C          22.6347   70.8214    1.1308 C.2     1  UNL1        0.0799
@<TRIPOS>UNITY_ATOM_ATTR
2 1
charge -1
26 1
charge -1
41 1
charge -1
@<TRIPOS>BOND
     1     1     4    1
     2     1    24    1
     3     1     2    1
     4     1     3    2
     5    25    28    1
     6    25    24    1
     7    25    26    1
     8    25    27    2
     9     6    11    1
    10     6    12    1
    11    29    36    1
    12    29    37    1
    13     7     9    1
    14     7    13    1
    15     8    10    1
    16     8    14    1
    17     4     5    1
    18    28    36    1
    19    30    33    1
    20    30    38    1
    21    31    34    1
    22    31    39    1
    23    32    35    1
    24    32    40    1
    25    41    43   ar
    26    15    19    2
    27    42    43   ar
    28    16    22    2
    29    17    12    1
    30    17    19   ar
    31    17    20   ar
    32    18    19   ar
    33    18    22   ar
    34    18    23    1
    35     9    10    1
    36     9    11    1
    37    10    12    1
    38    11     5    1
    39    33    34    1
    40    33    35    1
    41    34    36    1
    42    35    37    1
    43    37    43    1
    44    20    21   ar
    45    21    22   ar
@<TRIPOS>MOLECULE
*****
 43 45 0 0 0
SMALL
GASTEIGER

@<TRIPOS>ATOM
      1 P          20.7271   70.8906   -3.1262 P.3     1  UNL1        0.2189
      2 O          21.1714   69.5752   -3.9576 O.co2   1  UNL1       -0.4371
      3 O          20.4845   70.6633   -1.6629 O.2     1  UNL1       -0.5170
      4 O          19.4720   71.4742   -3.9641 O.3     1  UNL1       -0.3112
      5 C          18.8647   72.6750   -3.5237 C.3     1  UNL1        0.1811
      6 O          17.0295   72.7148   -5.0755 O.3     1  UNL1       -0.3308
      7 O          15.4383   71.3334   -2.9421 O.3     1  UNL1       -0.3794
      8 O          16.0984   69.2833   -4.6147 O.3     1  UNL1       -0.3779
      9 C          16.8175   71.1843   -3.2801 C.3     1  UNL1        0.1713
     10 C          16.9599   70.4015   -4.5682 C.3     1  UNL1        0.1895
     11 C          17.3542   72.5525   -3.6778 C.3     1  UNL1        0.1764
     12 C          16.6156   71.4488   -5.6134 C.3     1  UNL1        0.2383
     13 H          15.0733   70.4719   -2.6845 H       1  UNL1        0.2105
     14 H          16.3588   68.6459   -3.9308 H       1  UNL1        0.2106
     15 O          15.5249   70.0222   -7.7933 O.2     1  UNL1       -0.2464
     16 O          19.3154   70.6535  -10.3385 O.2     1  UNL1       -0.2670
     17 N          17.2957   71.2254   -6.8577 N.ar    1  UNL1       -0.2551
     18 N          17.4142   70.3371   -9.0585 N.ar    1  UNL1       -0.2743
     19 C          16.6589   70.4954   -7.8891 C.ar    1  UNL1        0.3323
     20 C          18.5773   71.7278   -7.0476 C.ar    1  UNL1        0.0869
     21 C          19.2847   71.5689   -8.1679 C.ar    1  UNL1        0.0795
     22 C          18.6922   70.8175   -9.2939 C.ar    1  UNL1        0.2626
     23 H          16.9926   69.8306   -9.7899 H       1  UNL1        0.1734
     24 O          21.9068   71.9449   -3.4574 O.3     1  UNL1       -0.2703
     25 P          23.4715   71.9490   -3.0509 P.3     1  UNL1        0.2208
     26 O          24.1532   72.8460   -4.2132 O.co2   1  UNL1       -0.4371
     27 O          24.0706   70.5814   -2.8938 O.2     1  UNL1       -0.5170
     28 O          23.5484   72.8695   -1.7283 O.3     1  UNL1       -0.2858
     29 O          23.2332   71.7235    0.3202 O.3     1  UNL1       -0.3226
     30 O          23.0517   75.6702    1.5282 O.3     1  UNL1       -0.3794
     31 O          21.7243   74.8108   -0.9282 O.3     1  UNL1       -0.3775
     32 O          25.4357   74.0916    2.0533 O.3     1  UNL1       -0.3792
     33 C          23.4836   74.5716    0.7252 C.3     1  UNL1        0.1718
     34 C          22.2749   73.9295    0.0438 C.3     1  UNL1        0.1968
     35 C          24.1778   73.5608    1.6408 C.3     1  UNL1        0.1723
     36 C          22.6644   72.6170   -0.6377 C.3     1  UNL1        0.2706
     37 C          24.4189   72.2348    0.9251 C.3     1  UNL1        0.1830
     38 H          22.6075   76.3257    0.9676 H       1  UNL1        0.2105
     39 H          21.4752   75.6458   -0.5027 H       1  UNL1        0.2106
     40 H          25.2963   74.9358    2.5101 H       1  UNL1        0.2106
     41 O          26.0230   70.6770    1.6333 O.co2   1  UNL1       -0.5466
     42 O          24.0770   70.7776    2.8174 O.co2   1  UNL1       -0.5466
     43 C          24.7862   71.1645    1.9007 C.2     1  UNL1        0.0799
@<TRIPOS>UNITY_ATOM_ATTR
2 1
charge -1
26 1
charge -1
41 1
charge -1
@<TRIPOS>BOND
     1     1     4    1
     2     1    24    1
     3     1     2    1
     4     1     3    2
     5    25    28    1
     6    25    24    1
     7    25    26    1
     8    25    27    2
     9     6    11    1
    10     6    12    1
    11    29    36    1
    12    29    37    1
    13     7     9    1
    14     7    13    1
    15     8    10    1
    16     8    14    1
    17     4     5    1
    18    28    36    1
    19    30    33    1
    20    30    38    1
    21    31    34    1
    22    31    39    1
    23    32    35    1
    24    32    40    1
    25    41    43   ar
    26    15    19    2
    27    42    43   ar
    28    16    22    2
    29    17    12    1
    30    17    19   ar
    31    17    20   ar
    32    18    19   ar
    33    18    22   ar
    34    18    23    1
    35     9    10    1
    36     9    11    1
    37    10    12    1
    38    11     5    1
    39    33    34    1
    40    33    35    1
    41    34    36    1
    42    35    37    1
    43    37    43    1
    44    20    21   ar
    45    21    22   ar
@<TRIPOS>MOLECULE
*****
 43 45 0 0 0
SMALL
GASTEIGER

@<TRIPOS>ATOM
      1 P          23.1050   71.5856   -2.4539 P.3     1  UNL1        0.2189
      2 O          22.4367   72.9549   -1.9086 O.co2   1  UNL1       -0.4371
      3 O          23.9384   71.7368   -3.6926 O.2     1  UNL1       -0.5170
      4 O          21.8567   70.5625   -2.5675 O.3     1  UNL1       -0.3112
      5 C          21.0950   70.5551   -3.7609 C.3     1  UNL1        0.1811
      6 O          19.1267   71.6345   -4.6203 O.3     1  UNL1       -0.3308
      7 O          17.6552   70.3503   -2.3451 O.3     1  UNL1       -0.3794
      8 O          17.0260   68.7342   -4.4495 O.3     1  UNL1       -0.3779
      9 C          18.7380   69.8403   -3.1236 C.3     1  UNL1        0.1713
     10 C          18.2502   69.4367   -4.4989 C.3     1  UNL1        0.1895
     11 C          19.6725   70.9987   -3.4442 C.3     1  UNL1        0.1764
     12 C          18.1254   70.7806   -5.1962 C.3     1  UNL1        0.2383
     13 H          17.0445   69.6281   -2.1278 H       1  UNL1        0.2105
     14 H          17.1581   67.8860   -3.9966 H       1  UNL1        0.2106
     15 O          16.1371   70.1029   -7.0840 O.2     1  UNL1       -0.2464
     16 O          19.0980   70.4504  -10.5992 O.2     1  UNL1       -0.2670
     17 N          18.3494   70.6868   -6.6111 N.ar    1  UNL1       -0.2551
     18 N          17.6139   70.2756   -8.8329 N.ar    1  UNL1       -0.2743
     19 C          17.2826   70.3387   -7.4730 C.ar    1  UNL1        0.3323
     20 C          19.6128   70.9394   -7.1316 C.ar    1  UNL1        0.0869
     21 C          19.9133   70.8754   -8.4302 C.ar    1  UNL1        0.0795
     22 C          18.8556   70.5176   -9.3980 C.ar    1  UNL1        0.2626
     23 H          16.8881   70.0332   -9.4522 H       1  UNL1        0.1734
     24 O          23.9093   71.0357   -1.1641 O.3     1  UNL1       -0.2703
     25 P          23.5409   71.0679    0.4097 P.3     1  UNL1        0.2208
     26 O          24.7919   70.3056    1.0981 O.co2   1  UNL1       -0.4371
     27 O          22.2000   70.4791    0.7403 O.2     1  UNL1       -0.5170
     28 O          23.7183   72.6125    0.8400 O.3     1  UNL1       -0.2858
     29 O          25.2786   74.2030    1.6430 O.3     1  UNL1       -0.3226
     30 O          22.3795   74.3101    4.5845 O.3     1  UNL1       -0.3794
     31 O          23.2388   71.7614    3.4442 O.3     1  UNL1       -0.3775
     32 O          22.5600   76.4587    2.6346 O.3     1  UNL1       -0.3792
     33 C          22.8858   74.1545    3.2588 C.3     1  UNL1        0.1718
     34 C          23.8941   73.0057    3.2276 C.3     1  UNL1        0.1968
     35 C          23.5611   75.4666    2.8534 C.3     1  UNL1        0.1723
     36 C          24.6258   72.9562    1.8855 C.3     1  UNL1        0.2706
     37 C          24.3734   75.3025    1.5721 C.3     1  UNL1        0.1830
     38 H          21.9458   73.4884    4.8636 H       1  UNL1        0.2105
     39 H          22.7722   71.7858    4.2940 H       1  UNL1        0.2106
     40 H          22.0357   76.5728    3.4427 H       1  UNL1        0.2106
     41 O          25.4919   77.1256    2.5348 O.co2   1  UNL1       -0.5466
     42 O          25.7714   76.7983    0.2956 O.co2   1  UNL1       -0.5466
     43 C          25.2808   76.4714    1.3659 C.2     1  UNL1        0.0799
@<TRIPOS>UNITY_ATOM_ATTR
2 1
charge -1
26 1
charge -1
41 1
charge -1
@<TRIPOS>BOND
     1     1     4    1
     2     1    24    1
     3     1     2    1
     4     1     3    2
     5    25    28    1
     6    25    24    1
     7    25    26    1
     8    25    27    2
     9     6    11    1
    10     6    12    1
    11    29    36    1
    12    29    37    1
    13     7     9    1
    14     7    13    1
    15     8    10    1
    16     8    14    1
    17     4     5    1
    18    28    36    1
    19    30    33    1
    20    30    38    1
    21    31    34    1
    22    31    39    1
    23    32    35    1
    24    32    40    1
    25    41    43   ar
    26    15    19    2
    27    42    43   ar
    28    16    22    2
    29    17    12    1
    30    17    19   ar
    31    17    20   ar
    32    18    19   ar
    33    18    22   ar
    34    18    23    1
    35     9    10    1
    36     9    11    1
    37    10    12    1
    38    11     5    1
    39    33    34    1
    40    33    35    1
    41    34    36    1
    42    35    37    1
    43    37    43    1
    44    20    21   ar
    45    21    22   ar
@<TRIPOS>MOLECULE
*****
 43 45 0 0 0
SMALL
GASTEIGER

@<TRIPOS>ATOM
      1 P          22.8782   71.3990   -2.2969 P.3     1  UNL1        0.2189
      2 O          22.3462   72.8658   -2.7264 O.co2   1  UNL1       -0.4371
      3 O          24.1917   70.9991   -2.9024 O.2     1  UNL1       -0.5170
      4 O          21.6292   70.4227   -2.6203 O.3     1  UNL1       -0.3112
      5 C          20.9407   70.5890   -3.8462 C.3     1  UNL1        0.1811
      6 O          19.0004   71.6778   -4.7558 O.3     1  UNL1       -0.3308
      7 O          17.4813   70.4722   -2.4688 O.3     1  UNL1       -0.3794
      8 O          16.8519   68.8157   -4.5414 O.3     1  UNL1       -0.3779
      9 C          18.5651   69.9267   -3.2213 C.3     1  UNL1        0.1713
     10 C          18.0876   69.4976   -4.5925 C.3     1  UNL1        0.1895
     11 C          19.5218   71.0623   -3.5580 C.3     1  UNL1        0.1764
     12 C          17.9927   70.8260   -5.3234 C.3     1  UNL1        0.2383
     13 H          16.8565   69.7652   -2.2419 H       1  UNL1        0.2105
     14 H          16.9650   67.9767   -4.0667 H       1  UNL1        0.2106
     15 O          15.9824   70.3246   -7.2427 O.2     1  UNL1       -0.2464
     16 O          19.0268   70.3399  -10.7031 O.2     1  UNL1       -0.2670
     17 N          18.2322   70.6943   -6.7327 N.ar    1  UNL1       -0.2551
     18 N          17.5007   70.3317   -8.9642 N.ar    1  UNL1       -0.2743
     19 C          17.1523   70.4426   -7.6117 C.ar    1  UNL1        0.3323
     20 C          19.5236   70.8160   -7.2311 C.ar    1  UNL1        0.0869
     21 C          19.8401   70.7080   -8.5230 C.ar    1  UNL1        0.0795
     22 C          18.7703   70.4444   -9.5075 C.ar    1  UNL1        0.2626
     23 H          16.7660   70.1544   -9.5952 H       1  UNL1        0.1734
     24 O          22.8751   71.4704   -0.6821 O.3     1  UNL1       -0.2703
     25 P          21.6546   71.4688    0.3781 P.3     1  UNL1        0.2208
     26 O          21.5470   69.9141    0.8160 O.co2   1  UNL1       -0.4371
     27 O          20.3769   72.0516   -0.1529 O.2     1  UNL1       -0.5170
     28 O          22.2423   72.2187    1.6799 O.3     1  UNL1       -0.2858
     29 O          21.5852   74.3439    2.4930 O.3     1  UNL1       -0.3226
     30 O          25.4663   74.0752    3.8832 O.3     1  UNL1       -0.3794
     31 O          24.7978   73.1956    1.1788 O.3     1  UNL1       -0.3775
     32 O          23.2338   73.6917    5.7053 O.3     1  UNL1       -0.3792
     33 C          24.1844   73.5820    3.4941 C.3     1  UNL1        0.1718
     34 C          23.9250   73.9313    2.0283 C.3     1  UNL1        0.1968
     35 C          23.1328   74.2382    4.3916 C.3     1  UNL1        0.1723
     36 C          22.4777   73.6251    1.6408 C.3     1  UNL1        0.2706
     37 C          21.7210   73.9914    3.8679 C.3     1  UNL1        0.1830
     38 H          26.1507   73.6719    3.3262 H       1  UNL1        0.2105
     39 H          25.7179   73.3849    1.4193 H       1  UNL1        0.2106
     40 H          24.1279   73.8419    6.0501 H       1  UNL1        0.2106
     41 O          21.3493   76.0211    4.9829 O.co2   1  UNL1       -0.5466
     42 O          19.5492   74.6541    4.6836 O.co2   1  UNL1       -0.5466
     43 C          20.7394   74.8924    4.5438 C.2     1  UNL1        0.0799
@<TRIPOS>UNITY_ATOM_ATTR
2 1
charge -1
26 1
charge -1
41 1
charge -1
@<TRIPOS>BOND
     1     1     4    1
     2     1    24    1
     3     1     2    1
     4     1     3    2
     5    25    28    1
     6    25    24    1
     7    25    26    1
     8    25    27    2
     9     6    11    1
    10     6    12    1
    11    29    36    1
    12    29    37    1
    13     7     9    1
    14     7    13    1
    15     8    10    1
    16     8    14    1
    17     4     5    1
    18    28    36    1
    19    30    33    1
    20    30    38    1
    21    31    34    1
    22    31    39    1
    23    32    35    1
    24    32    40    1
    25    41    43   ar
    26    15    19    2
    27    42    43   ar
    28    16    22    2
    29    17    12    1
    30    17    19   ar
    31    17    20   ar
    32    18    19   ar
    33    18    22   ar
    34    18    23    1
    35     9    10    1
    36     9    11    1
    37    10    12    1
    38    11     5    1
    39    33    34    1
    40    33    35    1
    41    34    36    1
    42    35    37    1
    43    37    43    1
    44    20    21   ar
    45    21    22   ar
@<TRIPOS>MOLECULE
*****
 43 45 0 0 0
SMALL
GASTEIGER

@<TRIPOS>ATOM
      1 P          23.4195   71.9708   -3.4097 P.3     1  UNL1        0.2189
      2 O          24.1671   72.9987   -4.4113 O.co2   1  UNL1       -0.4371
      3 O          24.2970   70.9006   -2.8296 O.2     1  UNL1       -0.5170
      4 O          22.1484   71.4503   -4.2648 O.3     1  UNL1       -0.3112
      5 C          21.5474   72.3371   -5.1904 C.3     1  UNL1        0.1811
      6 O          20.4784   70.4156   -6.1615 O.3     1  UNL1       -0.3308
      7 O          20.6719   71.8633   -8.7803 O.3     1  UNL1       -0.3794
      8 O          18.0721   72.2704   -8.0652 O.3     1  UNL1       -0.3779
      9 C          20.4279   72.3865   -7.4745 C.3     1  UNL1        0.1713
     10 C          19.0158   72.0621   -7.0353 C.3     1  UNL1        0.1895
     11 C          21.2616   71.5852   -6.4840 C.3     1  UNL1        0.1764
     12 C          19.1365   70.6003   -6.6397 C.3     1  UNL1        0.2383
     13 H          20.1499   72.3596   -9.4306 H       1  UNL1        0.2105
     14 H          18.0322   73.2158   -8.2807 H       1  UNL1        0.2106
     15 O          16.4645   69.8003   -7.0833 O.2     1  UNL1       -0.2464
     16 O          15.6956   69.2262   -2.5752 O.2     1  UNL1       -0.2670
     17 N          18.2160   70.2362   -5.5999 N.ar    1  UNL1       -0.2551
     18 N          16.0838   69.5161   -4.8376 N.ar    1  UNL1       -0.2743
     19 C          16.8956   69.8493   -5.9298 C.ar    1  UNL1        0.3323
     20 C          18.6240   70.2628   -4.2718 C.ar    1  UNL1        0.0869
     21 C          17.8388   69.9424   -3.2415 C.ar    1  UNL1        0.0795
     22 C          16.4442   69.5279   -3.4998 C.ar    1  UNL1        0.2626
     23 H          15.1595   69.2455   -5.0421 H       1  UNL1        0.1734
     24 O          22.7451   72.9537   -2.3179 O.3     1  UNL1       -0.2703
     25 P          23.2478   74.3623   -1.7041 P.3     1  UNL1        0.2208
     26 O          23.4055   75.3011   -3.0134 O.co2   1  UNL1       -0.4371
     27 O          24.4875   74.2603   -0.8634 O.2     1  UNL1       -0.5170
     28 O          21.9615   74.9543   -0.9312 O.3     1  UNL1       -0.2858
     29 O          21.0802   73.2116    0.4088 O.3     1  UNL1       -0.3226
     30 O          25.0035   73.3588    1.6949 O.3     1  UNL1       -0.3794
     31 O          23.5108   75.8227    1.2093 O.3     1  UNL1       -0.3775
     32 O          24.1255   71.2219   -0.0696 O.3     1  UNL1       -0.3792
     33 C          23.9345   73.4772    0.7561 C.3     1  UNL1        0.1718
     34 C          22.9338   74.5227    1.2493 C.3     1  UNL1        0.1968
     35 C          23.2587   72.1096    0.6340 C.3     1  UNL1        0.1723
     36 C          21.6666   74.5137    0.3931 C.3     1  UNL1        0.2706
     37 C          21.9387   72.2063   -0.1254 C.3     1  UNL1        0.1830
     38 H          25.4478   74.2161    1.7890 H       1  UNL1        0.2105
     39 H          24.3155   75.8356    1.7503 H       1  UNL1        0.2106
     40 H          24.9695   71.1516    0.4032 H       1  UNL1        0.2106
     41 O          21.5673   70.2534    1.1195 O.co2   1  UNL1       -0.5466
     42 O          20.2178   70.6099   -0.6835 O.co2   1  UNL1       -0.5466
     43 C          21.1372   70.9567    0.0427 C.2     1  UNL1        0.0799
@<TRIPOS>UNITY_ATOM_ATTR
2 1
charge -1
26 1
charge -1
41 1
charge -1
@<TRIPOS>BOND
     1     1     4    1
     2     1    24    1
     3     1     2    1
     4     1     3    2
     5    25    28    1
     6    25    24    1
     7    25    26    1
     8    25    27    2
     9     6    11    1
    10     6    12    1
    11    29    36    1
    12    29    37    1
    13     7     9    1
    14     7    13    1
    15     8    10    1
    16     8    14    1
    17     4     5    1
    18    28    36    1
    19    30    33    1
    20    30    38    1
    21    31    34    1
    22    31    39    1
    23    32    35    1
    24    32    40    1
    25    41    43   ar
    26    15    19    2
    27    42    43   ar
    28    16    22    2
    29    17    12    1
    30    17    19   ar
    31    17    20   ar
    32    18    19   ar
    33    18    22   ar
    34    18    23    1
    35     9    10    1
    36     9    11    1
    37    10    12    1
    38    11     5    1
    39    33    34    1
    40    33    35    1
    41    34    36    1
    42    35    37    1
    43    37    43    1
    44    20    21   ar
    45    21    22   ar
@<TRIPOS>MOLECULE
*****
 43 45 0 0 0
SMALL
GASTEIGER

@<TRIPOS>ATOM
      1 P          23.4903   73.5700   -4.1724 P.3     1  UNL1        0.2189
      2 O          22.7273   74.9761   -4.4167 O.co2   1  UNL1       -0.4371
      3 O          24.9828   73.6711   -4.0549 O.2     1  UNL1       -0.5170
      4 O          22.9418   72.6188   -5.3607 O.3     1  UNL1       -0.3112
      5 C          21.5597   72.3144   -5.3998 C.3     1  UNL1        0.1811
      6 O          20.4951   70.3530   -6.2926 O.3     1  UNL1       -0.3308
      7 O          20.6372   71.7167   -8.9593 O.3     1  UNL1       -0.3794
      8 O          18.0442   72.1233   -8.2196 O.3     1  UNL1       -0.3779
      9 C          20.4071   72.2797   -7.6676 C.3     1  UNL1        0.1713
     10 C          19.0045   71.9570   -7.1975 C.3     1  UNL1        0.1895
     11 C          21.2625   71.5185   -6.6641 C.3     1  UNL1        0.1764
     12 C          19.1448   70.5099   -6.7567 C.3     1  UNL1        0.2383
     13 H          20.1012   72.1870   -9.6175 H       1  UNL1        0.2105
     14 H          17.9922   73.0609   -8.4649 H       1  UNL1        0.2106
     15 O          16.4439   69.7729   -7.1288 O.2     1  UNL1       -0.2464
     16 O          15.7776   69.2319   -2.6003 O.2     1  UNL1       -0.2670
     17 N          18.2429   70.1714   -5.6924 N.ar    1  UNL1       -0.2551
     18 N          16.1143   69.5052   -4.8729 N.ar    1  UNL1       -0.2743
     19 C          16.9056   69.8153   -5.9869 C.ar    1  UNL1        0.3323
     20 C          18.6854   70.1925   -4.3753 C.ar    1  UNL1        0.0869
     21 C          17.9194   69.8943   -3.3240 C.ar    1  UNL1        0.0795
     22 C          16.5091   69.5127   -3.5449 C.ar    1  UNL1        0.2626
     23 H          15.1789   69.2562   -5.0527 H       1  UNL1        0.1734
     24 O          22.7503   72.9785   -2.8626 O.3     1  UNL1       -0.2703
     25 P          22.8718   71.5408   -2.1333 P.3     1  UNL1        0.2208
     26 O          24.2164   70.9114   -2.7784 O.co2   1  UNL1       -0.4371
     27 O          21.6541   70.6740   -2.2740 O.2     1  UNL1       -0.5170
     28 O          23.2746   71.8873   -0.6101 O.3     1  UNL1       -0.2858
     29 O          24.6475   70.9415    1.0720 O.3     1  UNL1       -0.3226
     30 O          21.2519   71.9219    3.2113 O.3     1  UNL1       -0.3794
     31 O          21.0347   70.7220    0.5566 O.3     1  UNL1       -0.3775
     32 O          23.6455   73.5552    3.4441 O.3     1  UNL1       -0.3792
     33 C          22.2314   72.0670    2.1829 C.3     1  UNL1        0.1718
     34 C          22.2411   70.8151    1.3052 C.3     1  UNL1        0.1968
     35 C          23.5944   72.2587    2.8518 C.3     1  UNL1        0.1723
     36 C          23.4266   70.8335    0.3392 C.3     1  UNL1        0.2706
     37 C          24.7322   72.1386    1.8421 C.3     1  UNL1        0.1830
     38 H          20.3772   71.7987    2.8099 H       1  UNL1        0.2105
     39 H          20.2783   70.7102    1.1633 H       1  UNL1        0.2106
     40 H          22.9263   73.6447    4.0888 H       1  UNL1        0.2106
     41 O          26.5772   70.7695    2.3146 O.co2   1  UNL1       -0.5466
     42 O          26.5784   72.8641    3.2157 O.co2   1  UNL1       -0.5466
     43 C          26.0466   71.9973    2.5383 C.2     1  UNL1        0.0799
@<TRIPOS>UNITY_ATOM_ATTR
2 1
charge -1
26 1
charge -1
41 1
charge -1
@<TRIPOS>BOND
     1     1     4    1
     2     1    24    1
     3     1     2    1
     4     1     3    2
     5    25    28    1
     6    25    24    1
     7    25    26    1
     8    25    27    2
     9     6    11    1
    10     6    12    1
    11    29    36    1
    12    29    37    1
    13     7     9    1
    14     7    13    1
    15     8    10    1
    16     8    14    1
    17     4     5    1
    18    28    36    1
    19    30    33    1
    20    30    38    1
    21    31    34    1
    22    31    39    1
    23    32    35    1
    24    32    40    1
    25    41    43   ar
    26    15    19    2
    27    42    43   ar
    28    16    22    2
    29    17    12    1
    30    17    19   ar
    31    17    20   ar
    32    18    19   ar
    33    18    22   ar
    34    18    23    1
    35     9    10    1
    36     9    11    1
    37    10    12    1
    38    11     5    1
    39    33    34    1
    40    33    35    1
    41    34    36    1
    42    35    37    1
    43    37    43    1
    44    20    21   ar
    45    21    22   ar
@<TRIPOS>MOLECULE
*****
 43 45 0 0 0
SMALL
GASTEIGER

@<TRIPOS>ATOM
      1 P          22.8359   71.4544   -2.6679 P.3     1  UNL1        0.2189
      2 O          22.3577   72.6705   -3.6226 O.co2   1  UNL1       -0.4371
      3 O          24.1351   70.8142   -3.0603 O.2     1  UNL1       -0.5170
      4 O          21.5531   70.4695   -2.6214 O.3     1  UNL1       -0.3112
      5 C          20.7819   70.3076   -3.7976 C.3     1  UNL1        0.1811
      6 O          18.9399   71.5271   -4.7451 O.3     1  UNL1       -0.3308
      7 O          17.2679   70.3332   -2.5609 O.3     1  UNL1       -0.3794
      8 O          16.6376   68.7789   -4.7109 O.3     1  UNL1       -0.3779
      9 C          18.3514   69.7543   -3.2884 C.3     1  UNL1        0.1713
     10 C          17.9083   69.3948   -4.6908 C.3     1  UNL1        0.1895
     11 C          19.3791   70.8471   -3.5493 C.3     1  UNL1        0.1764
     12 C          17.9129   70.7488   -5.3798 C.3     1  UNL1        0.2383
     13 H          16.5983   69.6539   -2.3824 H       1  UNL1        0.2105
     14 H          16.6872   67.9206   -4.2606 H       1  UNL1        0.2106
     15 O          15.9785   70.2479   -7.3757 O.2     1  UNL1       -0.2464
     16 O          19.1373   70.3863  -10.7293 O.2     1  UNL1       -0.2670
     17 N          18.2023   70.6489   -6.7824 N.ar    1  UNL1       -0.2551
     18 N          17.5538   70.3163   -9.0440 N.ar    1  UNL1       -0.2743
     19 C          17.1578   70.3945   -7.7023 C.ar    1  UNL1        0.3323
     20 C          19.5073   70.8040   -7.2340 C.ar    1  UNL1        0.0869
     21 C          19.8693   70.7269   -8.5161 C.ar    1  UNL1        0.0795
     22 C          18.8385   70.4628   -9.5414 C.ar    1  UNL1        0.2626
     23 H          16.8443   70.1378   -9.7029 H       1  UNL1        0.1734
     24 O          22.8328   72.1249   -1.1971 O.3     1  UNL1       -0.2703
     25 P          23.0810   73.6514   -0.7259 P.3     1  UNL1        0.2208
     26 O          21.6864   74.3845   -1.0974 O.co2   1  UNL1       -0.4371
     27 O          24.2967   74.2924   -1.3301 O.2     1  UNL1       -0.5170
     28 O          23.0898   73.5859    0.8859 O.3     1  UNL1       -0.2858
     29 O          25.1340   73.6566    2.0797 O.3     1  UNL1       -0.3226
     30 O          22.5551   72.1217    4.9190 O.3     1  UNL1       -0.3794
     31 O          22.4289   71.1982    2.1503 O.3     1  UNL1       -0.3775
     32 O          23.4123   74.8952    5.0737 O.3     1  UNL1       -0.3792
     33 C          22.9307   72.9129    3.7917 C.3     1  UNL1        0.1718
     34 C          23.4710   72.0051    2.6865 C.3     1  UNL1        0.1968
     35 C          24.0091   73.8997    4.2446 C.3     1  UNL1        0.1723
     36 C          24.0942   72.8283    1.5582 C.3     1  UNL1        0.2706
     37 C          24.6695   74.5885    3.0539 C.3     1  UNL1        0.1830
     38 H          21.8705   71.4869    4.6551 H       1  UNL1        0.2105
     39 H          22.0288   70.6734    2.8608 H       1  UNL1        0.2106
     40 H          22.9882   74.4699    5.8354 H       1  UNL1        0.2106
     41 O          25.8039   76.6271    3.2966 O.co2   1  UNL1       -0.5466
     42 O          26.9178   74.7367    3.9169 O.co2   1  UNL1       -0.5466
     43 C          25.9216   75.2877    3.4730 C.2     1  UNL1        0.0799
@<TRIPOS>UNITY_ATOM_ATTR
2 1
charge -1
26 1
charge -1
41 1
charge -1
@<TRIPOS>BOND
     1     1     4    1
     2     1    24    1
     3     1     2    1
     4     1     3    2
     5    25    28    1
     6    25    24    1
     7    25    26    1
     8    25    27    2
     9     6    11    1
    10     6    12    1
    11    29    36    1
    12    29    37    1
    13     7     9    1
    14     7    13    1
    15     8    10    1
    16     8    14    1
    17     4     5    1
    18    28    36    1
    19    30    33    1
    20    30    38    1
    21    31    34    1
    22    31    39    1
    23    32    35    1
    24    32    40    1
    25    41    43   ar
    26    15    19    2
    27    42    43   ar
    28    16    22    2
    29    17    12    1
    30    17    19   ar
    31    17    20   ar
    32    18    19   ar
    33    18    22   ar
    34    18    23    1
    35     9    10    1
    36     9    11    1
    37    10    12    1
    38    11     5    1
    39    33    34    1
    40    33    35    1
    41    34    36    1
    42    35    37    1
    43    37    43    1
    44    20    21   ar
    45    21    22   ar
@<TRIPOS>MOLECULE
*****
 43 45 0 0 0
SMALL
GASTEIGER

@<TRIPOS>ATOM
      1 P          21.5219   72.6609   -4.6834 P.3     1  UNL1        0.2189
      2 O          21.5561   74.2731   -4.5468 O.co2   1  UNL1       -0.4371
      3 O          22.3490   72.1024   -5.8040 O.2     1  UNL1       -0.5170
      4 O          19.9435   72.3085   -4.7318 O.3     1  UNL1       -0.3112
      5 C          19.4164   71.4307   -3.7540 C.3     1  UNL1        0.1811
      6 O          17.5413   71.7935   -5.2135 O.3     1  UNL1       -0.3308
      7 O          15.9313   70.2234   -3.2299 O.3     1  UNL1       -0.3794
      8 O          16.4097   68.3915   -5.1925 O.3     1  UNL1       -0.3779
      9 C          17.2874   70.0427   -3.6383 C.3     1  UNL1        0.1713
     10 C          17.3411   69.4401   -5.0262 C.3     1  UNL1        0.1895
     11 C          17.8972   71.4193   -3.8649 C.3     1  UNL1        0.1764
     12 C          17.0322   70.6412   -5.9036 C.3     1  UNL1        0.2383
     13 H          15.5206   69.3572   -3.0791 H       1  UNL1        0.2105
     14 H          16.6499   67.6509   -4.6131 H       1  UNL1        0.2106
     15 O          15.6375   70.6546   -8.3595 O.2     1  UNL1       -0.2464
     16 O          19.5399   70.3018  -10.7867 O.2     1  UNL1       -0.2670
     17 N          17.6589   70.5541   -7.1923 N.ar    1  UNL1       -0.2551
     18 N          17.5824   70.4778   -9.5660 N.ar    1  UNL1       -0.2743
     19 C          16.8670   70.5690   -8.3648 C.ar    1  UNL1        0.3323
     20 C          19.0419   70.4570   -7.2857 C.ar    1  UNL1        0.0869
     21 C          19.7096   70.3709   -8.4379 C.ar    1  UNL1        0.0795
     22 C          18.9569   70.3789   -9.7094 C.ar    1  UNL1        0.2626
     23 H          17.0525   70.4842  -10.3957 H       1  UNL1        0.1734
     24 O          21.9605   72.1625   -3.2096 O.3     1  UNL1       -0.2703
     25 P          23.4177   72.0406   -2.5203 P.3     1  UNL1        0.2208
     26 O          24.1361   73.4335   -2.9253 O.co2   1  UNL1       -0.4371
     27 O          24.1847   70.8117   -2.9148 O.2     1  UNL1       -0.5170
     28 O          23.1344   72.1737   -0.9378 O.3     1  UNL1       -0.2858
     29 O          24.4212   71.0709    0.7167 O.3     1  UNL1       -0.3226
     30 O          20.8817   71.7673    2.7303 O.3     1  UNL1       -0.3794
     31 O          20.8519   70.8582   -0.0458 O.3     1  UNL1       -0.3775
     32 O          23.2224   73.3989    3.2868 O.3     1  UNL1       -0.3792
     33 C          21.9190   72.0361    1.7872 C.3     1  UNL1        0.1718
     34 C          22.0081   70.8867    0.7830 C.3     1  UNL1        0.1968
     35 C          23.2344   72.1734    2.5572 C.3     1  UNL1        0.1723
     36 C          23.2498   71.0257   -0.0989 C.3     1  UNL1        0.2706
     37 C          24.4340   72.1788    1.6141 C.3     1  UNL1        0.1830
     38 H          20.0359   71.6760    2.2638 H       1  UNL1        0.2105
     39 H          20.0602   70.7704    0.5073 H       1  UNL1        0.2106
     40 H          22.4634   73.4083    3.8908 H       1  UNL1        0.2106
     41 O          26.1861   70.7273    2.1840 O.co2   1  UNL1       -0.5466
     42 O          26.2471   72.8285    3.0674 O.co2   1  UNL1       -0.5466
     43 C          25.7060   71.9814    2.3727 C.2     1  UNL1        0.0799
@<TRIPOS>UNITY_ATOM_ATTR
2 1
charge -1
26 1
charge -1
41 1
charge -1
@<TRIPOS>BOND
     1     1     4    1
     2     1    24    1
     3     1     2    1
     4     1     3    2
     5    25    28    1
     6    25    24    1
     7    25    26    1
     8    25    27    2
     9     6    11    1
    10     6    12    1
    11    29    36    1
    12    29    37    1
    13     7     9    1
    14     7    13    1
    15     8    10    1
    16     8    14    1
    17     4     5    1
    18    28    36    1
    19    30    33    1
    20    30    38    1
    21    31    34    1
    22    31    39    1
    23    32    35    1
    24    32    40    1
    25    41    43   ar
    26    15    19    2
    27    42    43   ar
    28    16    22    2
    29    17    12    1
    30    17    19   ar
    31    17    20   ar
    32    18    19   ar
    33    18    22   ar
    34    18    23    1
    35     9    10    1
    36     9    11    1
    37    10    12    1
    38    11     5    1
    39    33    34    1
    40    33    35    1
    41    34    36    1
    42    35    37    1
    43    37    43    1
    44    20    21   ar
    45    21    22   ar
@<TRIPOS>MOLECULE
*****
 43 45 0 0 0
SMALL
GASTEIGER

@<TRIPOS>ATOM
      1 P          22.8903   73.3347   -4.1727 P.3     1  UNL1        0.2189
      2 O          24.1795   72.3567   -4.1893 O.co2   1  UNL1       -0.4371
      3 O          23.1948   74.7880   -4.3899 O.2     1  UNL1       -0.5170
      4 O          22.1461   72.9730   -2.7823 O.3     1  UNL1       -0.3112
      5 C          20.7707   72.6391   -2.8186 C.3     1  UNL1        0.1811
      6 O          20.3054   72.6328   -0.4604 O.3     1  UNL1       -0.3308
      7 O          19.5440   75.5141   -0.7919 O.3     1  UNL1       -0.3794
      8 O          22.0559   75.6785    0.2566 O.3     1  UNL1       -0.3779
      9 C          20.5739   74.7709   -1.4440 C.3     1  UNL1        0.1713
     10 C          21.7270   74.5279   -0.4935 C.3     1  UNL1        0.1895
     11 C          20.0552   73.3594   -1.6830 C.3     1  UNL1        0.1764
     12 C          21.1908   73.3997    0.3711 C.3     1  UNL1        0.2383
     13 H          19.8522   76.4197   -0.6286 H       1  UNL1        0.2105
     14 H          22.3925   76.3672   -0.3387 H       1  UNL1        0.2106
     15 O          21.0064   70.5846    0.5047 O.2     1  UNL1       -0.2464
     16 O          25.2494   70.2080    2.2652 O.2     1  UNL1       -0.2670
     17 N          22.2325   72.5415    0.8601 N.ar    1  UNL1       -0.2551
     18 N          23.1195   70.3998    1.3824 N.ar    1  UNL1       -0.2743
     19 C          22.0388   71.1400    0.8852 C.ar    1  UNL1        0.3323
     20 C          23.4294   73.0884    1.3062 C.ar    1  UNL1        0.0869
     21 C          24.4505   72.3699    1.7773 C.ar    1  UNL1        0.0795
     22 C          24.3291   70.8985    1.8380 C.ar    1  UNL1        0.2626
     23 H          23.0073   69.4221    1.4115 H       1  UNL1        0.1734
     24 O          21.9208   72.6762   -5.2859 O.3     1  UNL1       -0.2703
     25 P          21.1099   73.3429   -6.5153 P.3     1  UNL1        0.2208
     26 O          22.0396   73.0069   -7.7971 O.co2   1  UNL1       -0.4371
     27 O          20.8093   74.8028   -6.3351 O.2     1  UNL1       -0.5170
     28 O          19.8076   72.4092   -6.7009 O.3     1  UNL1       -0.2858
     29 O          19.3245   70.2381   -5.8871 O.3     1  UNL1       -0.3226
     30 O          17.4008   70.2126   -9.5431 O.3     1  UNL1       -0.3794
     31 O          20.0603   71.3921   -9.2773 O.3     1  UNL1       -0.3775
     32 O          15.8672   70.4911   -7.0893 O.3     1  UNL1       -0.3792
     33 C          17.9046   70.7922   -8.3397 C.3     1  UNL1        0.1718
     34 C          19.4209   70.6065   -8.2779 C.3     1  UNL1        0.1968
     35 C          17.2336   70.0876   -7.1585 C.3     1  UNL1        0.1723
     36 C          19.9656   71.0064   -6.9060 C.3     1  UNL1        0.2706
     37 C          17.9140   70.4411   -5.8392 C.3     1  UNL1        0.1830
     38 H          17.8133   70.6447  -10.3076 H       1  UNL1        0.2105
     39 H          19.7192   71.1438  -10.1504 H       1  UNL1        0.2106
     40 H          15.4227   70.2718   -7.9230 H       1  UNL1        0.2106
     41 O          18.4793   69.3198   -3.8582 O.co2   1  UNL1       -0.5466
     42 O          16.3734   68.9977   -4.6710 O.co2   1  UNL1       -0.5466
     43 C          17.4782   69.5134   -4.7522 C.2     1  UNL1        0.0799
@<TRIPOS>UNITY_ATOM_ATTR
2 1
charge -1
26 1
charge -1
41 1
charge -1
@<TRIPOS>BOND
     1     1     4    1
     2     1    24    1
     3     1     2    1
     4     1     3    2
     5    25    28    1
     6    25    24    1
     7    25    26    1
     8    25    27    2
     9     6    11    1
    10     6    12    1
    11    29    36    1
    12    29    37    1
    13     7     9    1
    14     7    13    1
    15     8    10    1
    16     8    14    1
    17     4     5    1
    18    28    36    1
    19    30    33    1
    20    30    38    1
    21    31    34    1
    22    31    39    1
    23    32    35    1
    24    32    40    1
    25    41    43   ar
    26    15    19    2
    27    42    43   ar
    28    16    22    2
    29    17    12    1
    30    17    19   ar
    31    17    20   ar
    32    18    19   ar
    33    18    22   ar
    34    18    23    1
    35     9    10    1
    36     9    11    1
    37    10    12    1
    38    11     5    1
    39    33    34    1
    40    33    35    1
    41    34    36    1
    42    35    37    1
    43    37    43    1
    44    20    21   ar
    45    21    22   ar
@<TRIPOS>MOLECULE
*****
 43 45 0 0 0
SMALL
GASTEIGER

@<TRIPOS>ATOM
      1 P          21.4575   72.3325   -2.1482 P.3     1  UNL1        0.2189
      2 O          21.2600   73.7655   -1.4228 O.co2   1  UNL1       -0.4371
      3 O          22.4047   72.3367   -3.3121 O.2     1  UNL1       -0.5170
      4 O          19.9476   71.8500   -2.4729 O.3     1  UNL1       -0.3112
      5 C          19.5047   71.8736   -3.8175 C.3     1  UNL1        0.1811
      6 O          17.5333   72.0140   -5.1855 O.3     1  UNL1       -0.3308
      7 O          16.1586   70.4316   -3.0413 O.3     1  UNL1       -0.3794
      8 O          16.6783   68.5411   -4.9365 O.3     1  UNL1       -0.3779
      9 C          17.5017   70.3343   -3.5157 C.3     1  UNL1        0.1713
     10 C          17.5308   69.6653   -4.8736 C.3     1  UNL1        0.1895
     11 C          17.9875   71.7398   -3.8424 C.3     1  UNL1        0.1764
     12 C          17.0822   70.7913   -5.7895 C.3     1  UNL1        0.2383
     13 H          15.8264   69.5456   -2.8259 H       1  UNL1        0.2105
     14 H          17.0065   67.8526   -4.3363 H       1  UNL1        0.2106
     15 O          15.5648   70.5822   -8.1623 O.2     1  UNL1       -0.2464
     16 O          19.3514   70.3882  -10.7831 O.2     1  UNL1       -0.2670
     17 N          17.6459   70.6849   -7.1055 N.ar    1  UNL1       -0.2551
     18 N          17.4522   70.4847   -9.4653 N.ar    1  UNL1       -0.2743
     19 C          16.7953   70.5845   -8.2317 C.ar    1  UNL1        0.3323
     20 C          19.0256   70.6823   -7.2708 C.ar    1  UNL1        0.0869
     21 C          19.6371   70.5866   -8.4530 C.ar    1  UNL1        0.0795
     22 C          18.8209   70.4772   -9.6799 C.ar    1  UNL1        0.2626
     23 H          16.8809   70.4117  -10.2638 H       1  UNL1        0.1734
     24 O          21.8936   71.3654   -0.9286 O.3     1  UNL1       -0.2703
     25 P          21.5189   71.4049    0.6435 P.3     1  UNL1        0.2208
     26 O          21.5649   69.8451    1.0741 O.co2   1  UNL1       -0.4371
     27 O          20.2201   72.0929    0.9499 O.2     1  UNL1       -0.5170
     28 O          22.8088   72.0620    1.3553 O.3     1  UNL1       -0.2858
     29 O          24.2938   73.4695    0.1625 O.3     1  UNL1       -0.3226
     30 O          26.6196   72.3285    3.3807 O.3     1  UNL1       -0.3794
     31 O          24.9244   70.3808    2.0143 O.3     1  UNL1       -0.3775
     32 O          25.4591   74.9924    3.2906 O.3     1  UNL1       -0.3792
     33 C          25.4090   72.6573    2.6992 C.3     1  UNL1        0.1718
     34 C          25.1998   71.6912    1.5328 C.3     1  UNL1        0.1968
     35 C          25.5307   74.0936    2.1853 C.3     1  UNL1        0.1723
     36 C          24.0423   72.1488    0.6442 C.3     1  UNL1        0.2706
     37 C          24.4091   74.4324    1.2077 C.3     1  UNL1        0.1830
     38 H          26.5655   71.4198    3.7162 H       1  UNL1        0.2105
     39 H          25.6546   70.0842    2.5792 H       1  UNL1        0.2106
     40 H          26.1677   74.7874    3.9205 H       1  UNL1        0.2106
     41 O          23.6645   76.0567   -0.3117 O.co2   1  UNL1       -0.5466
     42 O          25.7578   76.3225    0.5523 O.co2   1  UNL1       -0.5466
     43 C          24.7128   75.6949    0.4688 C.2     1  UNL1        0.0799
@<TRIPOS>UNITY_ATOM_ATTR
2 1
charge -1
26 1
charge -1
41 1
charge -1
@<TRIPOS>BOND
     1     1     4    1
     2     1    24    1
     3     1     2    1
     4     1     3    2
     5    25    28    1
     6    25    24    1
     7    25    26    1
     8    25    27    2
     9     6    11    1
    10     6    12    1
    11    29    36    1
    12    29    37    1
    13     7     9    1
    14     7    13    1
    15     8    10    1
    16     8    14    1
    17     4     5    1
    18    28    36    1
    19    30    33    1
    20    30    38    1
    21    31    34    1
    22    31    39    1
    23    32    35    1
    24    32    40    1
    25    41    43   ar
    26    15    19    2
    27    42    43   ar
    28    16    22    2
    29    17    12    1
    30    17    19   ar
    31    17    20   ar
    32    18    19   ar
    33    18    22   ar
    34    18    23    1
    35     9    10    1
    36     9    11    1
    37    10    12    1
    38    11     5    1
    39    33    34    1
    40    33    35    1
    41    34    36    1
    42    35    37    1
    43    37    43    1
    44    20    21   ar
    45    21    22   ar
@<TRIPOS>MOLECULE
*****
 43 45 0 0 0
SMALL
GASTEIGER

@<TRIPOS>ATOM
      1 P          22.0340   72.5360   -2.0787 P.3     1  UNL1        0.2189
      2 O          21.3212   73.7373   -1.2615 O.co2   1  UNL1       -0.4371
      3 O          22.8984   72.9746   -3.2242 O.2     1  UNL1       -0.5170
      4 O          20.8118   71.5464   -2.4595 O.3     1  UNL1       -0.3112
      5 C          20.2428   71.6412   -3.7524 C.3     1  UNL1        0.1811
      6 O          18.1687   72.0154   -4.9082 O.3     1  UNL1       -0.3308
      7 O          16.8675   70.4817   -2.6841 O.3     1  UNL1       -0.3794
      8 O          17.0164   68.6281   -4.6786 O.3     1  UNL1       -0.3779
      9 C          18.1421   70.2808   -3.2953 C.3     1  UNL1        0.1713
     10 C          17.9738   69.6663   -4.6687 C.3     1  UNL1        0.1895
     11 C          18.7247   71.6478   -3.6271 C.3     1  UNL1        0.1764
     12 C          17.5463   70.8639   -5.4999 C.3     1  UNL1        0.2383
     13 H          16.4755   69.6220   -2.4630 H       1  UNL1        0.2105
     14 H          17.3351   67.8892   -4.1360 H       1  UNL1        0.2106
     15 O          15.8243   70.2459   -7.6515 O.2     1  UNL1       -0.2464
     16 O          19.2631   70.4858  -10.7111 O.2     1  UNL1       -0.2670
     17 N          17.9652   70.7585   -6.8689 N.ar    1  UNL1       -0.2551
     18 N          17.5388   70.3649   -9.1732 N.ar    1  UNL1       -0.2743
     19 C          17.0204   70.4429   -7.8739 C.ar    1  UNL1        0.3323
     20 C          19.2972   70.9682   -7.2048 C.ar    1  UNL1        0.0869
     21 C          19.7764   70.8905   -8.4478 C.ar    1  UNL1        0.0795
     22 C          18.8553   70.5645   -9.5562 C.ar    1  UNL1        0.2626
     23 H          16.9005   70.1445   -9.8896 H       1  UNL1        0.1734
     24 O          22.8134   71.7216   -0.9202 O.3     1  UNL1       -0.2703
     25 P          22.2928   71.1159    0.4854 P.3     1  UNL1        0.2208
     26 O          23.5381   70.2083    0.9810 O.co2   1  UNL1       -0.4371
     27 O          20.9884   70.3784    0.3927 O.2     1  UNL1       -0.5170
     28 O          22.2798   72.3750    1.4939 O.3     1  UNL1       -0.2858
     29 O          21.9350   72.6417    3.8218 O.3     1  UNL1       -0.3226
     30 O          19.9223   75.9101    2.2939 O.3     1  UNL1       -0.3794
     31 O          19.7030   73.2993    1.0017 O.3     1  UNL1       -0.3775
     32 O          22.5186   76.2543    3.5554 O.3     1  UNL1       -0.3792
     33 C          20.9373   74.9072    2.3349 C.3     1  UNL1        0.1718
     34 C          20.2913   73.5226    2.2780 C.3     1  UNL1        0.1968
     35 C          21.7177   75.0771    3.6403 C.3     1  UNL1        0.1723
     36 C          21.3223   72.4263    2.5499 C.3     1  UNL1        0.2706
     37 C          22.6313   73.8834    3.9027 C.3     1  UNL1        0.1830
     38 H          19.4131   75.8218    1.4728 H       1  UNL1        0.2105
     39 H          19.0480   73.9915    0.8225 H       1  UNL1        0.2106
     40 H          21.9492   77.0215    3.3885 H       1  UNL1        0.2106
     41 O          24.2418   74.6669    5.4173 O.co2   1  UNL1       -0.5466
     42 O          22.6137   73.3012    6.2441 O.co2   1  UNL1       -0.5466
     43 C          23.1306   73.8969    5.3108 C.2     1  UNL1        0.0799
@<TRIPOS>UNITY_ATOM_ATTR
2 1
charge -1
26 1
charge -1
41 1
charge -1
@<TRIPOS>BOND
     1     1     4    1
     2     1    24    1
     3     1     2    1
     4     1     3    2
     5    25    28    1
     6    25    24    1
     7    25    26    1
     8    25    27    2
     9     6    11    1
    10     6    12    1
    11    29    36    1
    12    29    37    1
    13     7     9    1
    14     7    13    1
    15     8    10    1
    16     8    14    1
    17     4     5    1
    18    28    36    1
    19    30    33    1
    20    30    38    1
    21    31    34    1
    22    31    39    1
    23    32    35    1
    24    32    40    1
    25    41    43   ar
    26    15    19    2
    27    42    43   ar
    28    16    22    2
    29    17    12    1
    30    17    19   ar
    31    17    20   ar
    32    18    19   ar
    33    18    22   ar
    34    18    23    1
    35     9    10    1
    36     9    11    1
    37    10    12    1
    38    11     5    1
    39    33    34    1
    40    33    35    1
    41    34    36    1
    42    35    37    1
    43    37    43    1
    44    20    21   ar
    45    21    22   ar
@<TRIPOS>MOLECULE
*****
 43 45 0 0 0
SMALL
GASTEIGER

@<TRIPOS>ATOM
      1 P          21.5145   72.7455   -4.0137 P.3     1  UNL1        0.2189
      2 O          20.7326   74.1425   -4.2499 O.co2   1  UNL1       -0.4371
      3 O          22.9046   72.6945   -4.5764 O.2     1  UNL1       -0.5170
      4 O          20.4884   71.6265   -4.5733 O.3     1  UNL1       -0.3112
      5 C          19.8128   70.8022   -3.6414 C.3     1  UNL1        0.1811
      6 O          18.0121   71.7142   -4.9466 O.3     1  UNL1       -0.3308
      7 O          16.1685   70.3838   -2.9914 O.3     1  UNL1       -0.3794
      8 O          16.1189   68.6742   -5.1153 O.3     1  UNL1       -0.3779
      9 C          17.4256   69.9344   -3.4977 C.3     1  UNL1        0.1713
     10 C          17.2758   69.4622   -4.9285 C.3     1  UNL1        0.1895
     11 C          18.3296   71.1492   -3.6561 C.3     1  UNL1        0.1764
     12 C          17.2180   70.7757   -5.6896 C.3     1  UNL1        0.2383
     13 H          15.5738   69.6249   -2.8818 H       1  UNL1        0.2105
     14 H          16.2045   67.8494   -4.6110 H       1  UNL1        0.2106
     15 O          15.6436   70.5602   -8.0244 O.2     1  UNL1       -0.2464
     16 O          19.3658   70.3485  -10.7346 O.2     1  UNL1       -0.2670
     17 N          17.7497   70.6630   -7.0183 N.ar    1  UNL1       -0.2551
     18 N          17.4990   70.4540   -9.3719 N.ar    1  UNL1       -0.2743
     19 C          16.8721   70.5599   -8.1234 C.ar    1  UNL1        0.3323
     20 C          19.1250   70.6570   -7.2167 C.ar    1  UNL1        0.0869
     21 C          19.7078   70.5555   -8.4129 C.ar    1  UNL1        0.0795
     22 C          18.8621   70.4429   -9.6194 C.ar    1  UNL1        0.2626
     23 H          16.9085   70.3789  -10.1562 H       1  UNL1        0.1734
     24 O          21.4289   72.5480   -2.4116 O.3     1  UNL1       -0.2703
     25 P          22.5875   72.4944   -1.2854 P.3     1  UNL1        0.2208
     26 O          23.5104   73.7753   -1.6429 O.co2   1  UNL1       -0.4371
     27 O          23.3321   71.1920   -1.2295 O.2     1  UNL1       -0.5170
     28 O          21.8430   72.8994    0.0873 O.3     1  UNL1       -0.2858
     29 O          21.5225   74.8993    1.3149 O.3     1  UNL1       -0.3226
     30 O          22.3245   72.1848    4.3243 O.3     1  UNL1       -0.3794
     31 O          23.8636   72.1409    1.8416 O.3     1  UNL1       -0.3775
     32 O          19.6017   73.0953    3.8681 O.3     1  UNL1       -0.3792
     33 C          21.8212   72.6187    3.0608 C.3     1  UNL1        0.1718
     34 C          22.9674   73.1797    2.2188 C.3     1  UNL1        0.1968
     35 C          20.7697   73.7007    3.3170 C.3     1  UNL1        0.1723
     36 C          22.4363   73.8618    0.9571 C.3     1  UNL1        0.2706
     37 C          20.3843   74.4193    2.0272 C.3     1  UNL1        0.1830
     38 H          22.9947   71.4968    4.1867 H       1  UNL1        0.2105
     39 H          24.2042   71.7036    2.6374 H       1  UNL1        0.2106
     40 H          19.8334   72.6343    4.6895 H       1  UNL1        0.2106
     41 O          19.7654   76.0196    3.6264 O.co2   1  UNL1       -0.5466
     42 O          18.9616   76.2984    1.5109 O.co2   1  UNL1       -0.5466
     43 C          19.6226   75.6699    2.3240 C.2     1  UNL1        0.0799
@<TRIPOS>UNITY_ATOM_ATTR
2 1
charge -1
26 1
charge -1
41 1
charge -1
@<TRIPOS>BOND
     1     1     4    1
     2     1    24    1
     3     1     2    1
     4     1     3    2
     5    25    28    1
     6    25    24    1
     7    25    26    1
     8    25    27    2
     9     6    11    1
    10     6    12    1
    11    29    36    1
    12    29    37    1
    13     7     9    1
    14     7    13    1
    15     8    10    1
    16     8    14    1
    17     4     5    1
    18    28    36    1
    19    30    33    1
    20    30    38    1
    21    31    34    1
    22    31    39    1
    23    32    35    1
    24    32    40    1
    25    41    43   ar
    26    15    19    2
    27    42    43   ar
    28    16    22    2
    29    17    12    1
    30    17    19   ar
    31    17    20   ar
    32    18    19   ar
    33    18    22   ar
    34    18    23    1
    35     9    10    1
    36     9    11    1
    37    10    12    1
    38    11     5    1
    39    33    34    1
    40    33    35    1
    41    34    36    1
    42    35    37    1
    43    37    43    1
    44    20    21   ar
    45    21    22   ar
@<TRIPOS>MOLECULE
*****
 43 45 0 0 0
SMALL
GASTEIGER

@<TRIPOS>ATOM
      1 P          22.6758   72.8865   -4.3458 P.3     1  UNL1        0.2189
      2 O          23.0798   73.7164   -5.6750 O.co2   1  UNL1       -0.4371
      3 O          23.7186   71.9237   -3.8586 O.2     1  UNL1       -0.5170
      4 O          21.2392   72.2393   -4.7136 O.3     1  UNL1       -0.3112
      5 C          20.7241   71.2182   -3.8791 C.3     1  UNL1        0.1811
      6 O          18.6658   71.9285   -4.8974 O.3     1  UNL1       -0.3308
      7 O          17.2830   70.5940   -2.5955 O.3     1  UNL1       -0.3794
      8 O          17.0088   68.7633   -4.5979 O.3     1  UNL1       -0.3779
      9 C          18.4680   70.2014   -3.2884 C.3     1  UNL1        0.1713
     10 C          18.1171   69.6371   -4.6488 C.3     1  UNL1        0.1895
     11 C          19.2373   71.4630   -3.6556 C.3     1  UNL1        0.1764
     12 C          17.8324   70.8967   -5.4489 C.3     1  UNL1        0.2383
     13 H          16.7747   69.8046   -2.3505 H       1  UNL1        0.2105
     14 H          17.2405   67.9772   -4.0780 H       1  UNL1        0.2106
     15 O          15.8996   70.6138   -7.4886 O.2     1  UNL1       -0.2464
     16 O          19.1314   70.3108  -10.7609 O.2     1  UNL1       -0.2670
     17 N          18.1411   70.7423   -6.8424 N.ar    1  UNL1       -0.2551
     18 N          17.5110   70.4621   -9.1163 N.ar    1  UNL1       -0.2743
     19 C          17.0955   70.6076   -7.7862 C.ar    1  UNL1        0.3323
     20 C          19.4658   70.7270   -7.2618 C.ar    1  UNL1        0.0869
     21 C          19.8463   70.5877   -8.5332 C.ar    1  UNL1        0.0795
     22 C          18.8158   70.4403   -9.5819 C.ar    1  UNL1        0.2626
     23 H          16.8010   70.3646   -9.7913 H       1  UNL1        0.1734
     24 O          22.2908   74.0515   -3.2936 O.3     1  UNL1       -0.2703
     25 P          23.0793   74.6165   -2.0002 P.3     1  UNL1        0.2208
     26 O          22.3488   76.0318   -1.7108 O.co2   1  UNL1       -0.4371
     27 O          24.5667   74.7136   -2.1795 O.2     1  UNL1       -0.5170
     28 O          22.6121   73.6616   -0.7867 O.3     1  UNL1       -0.2858
     29 O          23.8111   73.4289    1.2424 O.3     1  UNL1       -0.3226
     30 O          21.6473   69.9111    1.1363 O.3     1  UNL1       -0.3794
     31 O          22.9172   70.9422   -1.2842 O.3     1  UNL1       -0.3775
     32 O          20.8408   72.0673    2.9114 O.3     1  UNL1       -0.3792
     33 C          21.8984   71.2946    0.8893 C.3     1  UNL1        0.1718
     34 C          23.1527   71.4411    0.0274 C.3     1  UNL1        0.1968
     35 C          22.0963   71.9877    2.2392 C.3     1  UNL1        0.1723
     36 C          23.5839   72.9053   -0.0667 C.3     1  UNL1        0.2706
     37 C          22.6467   73.4002    2.0649 C.3     1  UNL1        0.1830
     38 H          21.5184   69.4500    0.2924 H       1  UNL1        0.2105
     39 H          22.6430   70.0135   -1.2320 H       1  UNL1        0.2106
     40 H          20.4795   71.1748    3.0286 H       1  UNL1        0.2106
     41 O          22.1621   74.6297    4.0027 O.co2   1  UNL1       -0.5466
     42 O          24.2715   73.7865    3.8061 O.co2   1  UNL1       -0.5466
     43 C          23.1419   73.9409    3.3666 C.2     1  UNL1        0.0799
@<TRIPOS>UNITY_ATOM_ATTR
2 1
charge -1
26 1
charge -1
41 1
charge -1
@<TRIPOS>BOND
     1     1     4    1
     2     1    24    1
     3     1     2    1
     4     1     3    2
     5    25    28    1
     6    25    24    1
     7    25    26    1
     8    25    27    2
     9     6    11    1
    10     6    12    1
    11    29    36    1
    12    29    37    1
    13     7     9    1
    14     7    13    1
    15     8    10    1
    16     8    14    1
    17     4     5    1
    18    28    36    1
    19    30    33    1
    20    30    38    1
    21    31    34    1
    22    31    39    1
    23    32    35    1
    24    32    40    1
    25    41    43   ar
    26    15    19    2
    27    42    43   ar
    28    16    22    2
    29    17    12    1
    30    17    19   ar
    31    17    20   ar
    32    18    19   ar
    33    18    22   ar
    34    18    23    1
    35     9    10    1
    36     9    11    1
    37    10    12    1
    38    11     5    1
    39    33    34    1
    40    33    35    1
    41    34    36    1
    42    35    37    1
    43    37    43    1
    44    20    21   ar
    45    21    22   ar
@<TRIPOS>MOLECULE
*****
 43 45 0 0 0
SMALL
GASTEIGER

@<TRIPOS>ATOM
      1 P          21.9201   72.5208   -5.7781 P.3     1  UNL1        0.2189
      2 O          21.3751   73.9821   -5.3465 O.co2   1  UNL1       -0.4371
      3 O          23.0767   72.5329   -6.7342 O.2     1  UNL1       -0.5170
      4 O          20.5942   71.7469   -6.2891 O.3     1  UNL1       -0.3112
      5 C          20.0576   72.0880   -7.5540 C.3     1  UNL1        0.1811
      6 O          18.9183   70.0150   -7.1270 O.3     1  UNL1       -0.3308
      7 O          18.1325   70.0658  -10.0204 O.3     1  UNL1       -0.3794
      8 O          15.8698   70.9378   -8.7730 O.3     1  UNL1       -0.3779
      9 C          18.2696   71.1504   -9.1021 C.3     1  UNL1        0.1713
     10 C          17.1073   71.1658   -8.1319 C.3     1  UNL1        0.1895
     11 C          19.4459   70.8439   -8.1853 C.3     1  UNL1        0.1764
     12 C          17.4830   70.0498   -7.1720 C.3     1  UNL1        0.2383
     13 H          17.3869   70.2389  -10.6168 H       1  UNL1        0.2105
     14 H          15.6757   71.6758   -9.3728 H       1  UNL1        0.2106
     15 O          16.2984   68.0583   -5.5573 O.2     1  UNL1       -0.2464
     16 O          15.5868   71.0251   -2.1024 O.2     1  UNL1       -0.2670
     17 N          16.9796   70.2744   -5.8465 N.ar    1  UNL1       -0.2551
     18 N          15.9442   69.5381   -3.8385 N.ar    1  UNL1       -0.2743
     19 C          16.4029   69.2059   -5.1200 C.ar    1  UNL1        0.3323
     20 C          17.0611   71.5401   -5.2789 C.ar    1  UNL1        0.0869
     21 C          16.6196   71.8414   -4.0562 C.ar    1  UNL1        0.0795
     22 C          16.0027   70.7821   -3.2313 C.ar    1  UNL1        0.2626
     23 H          15.5369   68.8110   -3.3143 H       1  UNL1        0.1734
     24 O          22.2284   71.8143   -4.3573 O.3     1  UNL1       -0.2703
     25 P          23.4876   71.9547   -3.3531 P.3     1  UNL1        0.2208
     26 O          24.3874   73.1075   -4.0471 O.co2   1  UNL1       -0.4371
     27 O          24.2190   70.6684   -3.0991 O.2     1  UNL1       -0.5170
     28 O          22.8810   72.6523   -2.0311 O.3     1  UNL1       -0.2858
     29 O          23.0042   71.1483   -0.2057 O.3     1  UNL1       -0.3226
     30 O          21.0822   74.3838    1.4990 O.3     1  UNL1       -0.3794
     31 O          20.3642   73.4804   -1.1848 O.3     1  UNL1       -0.3775
     32 O          23.8892   73.8875    2.0693 O.3     1  UNL1       -0.3792
     33 C          21.9808   73.7230    0.6079 C.3     1  UNL1        0.1718
     34 C          21.1992   72.7598   -0.2858 C.3     1  UNL1        0.1968
     35 C          23.0035   72.9568    1.4498 C.3     1  UNL1        0.1723
     36 C          22.1469   71.8697   -1.0912 C.3     1  UNL1        0.2706
     37 C          23.8249   71.9984    0.5923 C.3     1  UNL1        0.1830
     38 H          20.4228   74.8774    0.9863 H       1  UNL1        0.2105
     39 H          19.7604   74.0474   -0.6806 H       1  UNL1        0.2106
     40 H          23.3789   74.5035    2.6180 H       1  UNL1        0.2106
     41 O          23.9413   70.8468    2.6324 O.co2   1  UNL1       -0.5466
     42 O          25.6186   70.4778    1.1326 O.co2   1  UNL1       -0.5466
     43 C          24.5764   71.0317    1.4486 C.2     1  UNL1        0.0799
@<TRIPOS>UNITY_ATOM_ATTR
2 1
charge -1
26 1
charge -1
41 1
charge -1
@<TRIPOS>BOND
     1     1     4    1
     2     1    24    1
     3     1     2    1
     4     1     3    2
     5    25    28    1
     6    25    24    1
     7    25    26    1
     8    25    27    2
     9     6    11    1
    10     6    12    1
    11    29    36    1
    12    29    37    1
    13     7     9    1
    14     7    13    1
    15     8    10    1
    16     8    14    1
    17     4     5    1
    18    28    36    1
    19    30    33    1
    20    30    38    1
    21    31    34    1
    22    31    39    1
    23    32    35    1
    24    32    40    1
    25    41    43   ar
    26    15    19    2
    27    42    43   ar
    28    16    22    2
    29    17    12    1
    30    17    19   ar
    31    17    20   ar
    32    18    19   ar
    33    18    22   ar
    34    18    23    1
    35     9    10    1
    36     9    11    1
    37    10    12    1
    38    11     5    1
    39    33    34    1
    40    33    35    1
    41    34    36    1
    42    35    37    1
    43    37    43    1
    44    20    21   ar
    45    21    22   ar
@<TRIPOS>MOLECULE
*****
 43 45 0 0 0
SMALL
GASTEIGER

@<TRIPOS>ATOM
      1 P          23.4286   71.9754   -3.3917 P.3     1  UNL1        0.2189
      2 O          24.1883   72.9148   -4.4685 O.co2   1  UNL1       -0.4371
      3 O          24.1553   70.7141   -3.0272 O.2     1  UNL1       -0.5170
      4 O          21.9515   71.7783   -4.0219 O.3     1  UNL1       -0.3112
      5 C          21.2090   70.6291   -3.6579 C.3     1  UNL1        0.1811
      6 O          19.2040   71.6497   -4.5042 O.3     1  UNL1       -0.3308
      7 O          17.7960   70.3681   -2.1876 O.3     1  UNL1       -0.3794
      8 O          17.1734   68.7053   -4.2572 O.3     1  UNL1       -0.3779
      9 C          18.8787   69.8708   -2.9744 C.3     1  UNL1        0.1713
     10 C          18.3802   69.4346   -4.3358 C.3     1  UNL1        0.1895
     11 C          19.7815   71.0451   -3.3268 C.3     1  UNL1        0.1764
     12 C          18.2144   70.7642   -5.0517 C.3     1  UNL1        0.2383
     13 H          17.2053   69.6357   -1.9502 H       1  UNL1        0.2105
     14 H          17.3316   67.8675   -3.7934 H       1  UNL1        0.2106
     15 O          16.2406   69.9225   -6.8881 O.2     1  UNL1       -0.2464
     16 O          19.1136   70.3760  -10.4636 O.2     1  UNL1       -0.2670
     17 N          18.4196   70.6533   -6.4682 N.ar    1  UNL1       -0.2551
     18 N          17.6737   70.1482   -8.6670 N.ar    1  UNL1       -0.2743
     19 C          17.3622   70.2205   -7.3029 C.ar    1  UNL1        0.3323
     20 C          19.6556   70.9726   -7.0170 C.ar    1  UNL1        0.0869
     21 C          19.9375   70.8988   -8.3193 C.ar    1  UNL1        0.0795
     22 C          18.8879   70.4545   -9.2598 C.ar    1  UNL1        0.2626
     23 H          16.9540   69.8474   -9.2677 H       1  UNL1        0.1734
     24 O          23.1646   72.9818   -2.1547 O.3     1  UNL1       -0.2703
     25 P          23.6444   74.5053   -1.9047 P.3     1  UNL1        0.2208
     26 O          22.2526   75.2974   -1.6684 O.co2   1  UNL1       -0.4371
     27 O          24.4985   75.0699   -3.0028 O.2     1  UNL1       -0.5170
     28 O          24.3497   74.4796   -0.4541 O.3     1  UNL1       -0.2858
     29 O          23.1090   73.0811    0.9999 O.3     1  UNL1       -0.3226
     30 O          26.0709   74.4891    3.5123 O.3     1  UNL1       -0.3794
     31 O          24.7550   76.2859    1.6217 O.3     1  UNL1       -0.3775
     32 O          26.2015   71.7746    2.4802 O.3     1  UNL1       -0.3792
     33 C          25.5058   74.0717    2.2696 C.3     1  UNL1        0.1718
     34 C          24.3156   74.9663    1.9224 C.3     1  UNL1        0.1968
     35 C          25.0527   72.6178    2.4207 C.3     1  UNL1        0.1723
     36 C          23.5462   74.4120    0.7226 C.3     1  UNL1        0.2706
     37 C          24.1861   72.1792    1.2438 C.3     1  UNL1        0.1830
     38 H          26.3661   75.4105    3.4402 H       1  UNL1        0.2105
     39 H          25.2442   76.6437    2.3787 H       1  UNL1        0.2106
     40 H          26.7617   72.0434    3.2251 H       1  UNL1        0.2106
     41 O          24.3805   69.8895    1.7137 O.co2   1  UNL1       -0.5466
     42 O          22.2750   70.7620    1.6443 O.co2   1  UNL1       -0.5466
     43 C          23.4859   70.8954    1.5501 C.2     1  UNL1        0.0799
@<TRIPOS>UNITY_ATOM_ATTR
2 1
charge -1
26 1
charge -1
41 1
charge -1
@<TRIPOS>BOND
     1     1     4    1
     2     1    24    1
     3     1     2    1
     4     1     3    2
     5    25    28    1
     6    25    24    1
     7    25    26    1
     8    25    27    2
     9     6    11    1
    10     6    12    1
    11    29    36    1
    12    29    37    1
    13     7     9    1
    14     7    13    1
    15     8    10    1
    16     8    14    1
    17     4     5    1
    18    28    36    1
    19    30    33    1
    20    30    38    1
    21    31    34    1
    22    31    39    1
    23    32    35    1
    24    32    40    1
    25    41    43   ar
    26    15    19    2
    27    42    43   ar
    28    16    22    2
    29    17    12    1
    30    17    19   ar
    31    17    20   ar
    32    18    19   ar
    33    18    22   ar
    34    18    23    1
    35     9    10    1
    36     9    11    1
    37    10    12    1
    38    11     5    1
    39    33    34    1
    40    33    35    1
    41    34    36    1
    42    35    37    1
    43    37    43    1
    44    20    21   ar
    45    21    22   ar
@<TRIPOS>MOLECULE
*****
 43 45 0 0 0
SMALL
GASTEIGER

@<TRIPOS>ATOM
      1 P          22.3745   71.2036    0.1265 P.3     1  UNL1        0.2189
      2 O          21.5719   70.0817    0.9727 O.co2   1  UNL1       -0.4371
      3 O          23.8694   71.0816    0.1710 O.2     1  UNL1       -0.5170
      4 O          21.7674   72.6037    0.6641 O.3     1  UNL1       -0.3112
      5 C          22.3183   73.1734    1.8373 C.3     1  UNL1        0.1811
      6 O          22.2911   72.5364    4.1549 O.3     1  UNL1       -0.3308
      7 O          19.4140   73.3813    4.1612 O.3     1  UNL1       -0.3794
      8 O          20.6624   75.5093    5.3227 O.3     1  UNL1       -0.3779
      9 C          20.5214   73.9502    3.4622 C.3     1  UNL1        0.1713
     10 C          21.4071   74.7186    4.4200 C.3     1  UNL1        0.1895
     11 C          21.4353   72.8135    3.0253 C.3     1  UNL1        0.1764
     12 C          22.1678   73.6004    5.1121 C.3     1  UNL1        0.2383
     13 H          18.8158   74.0885    4.4504 H       1  UNL1        0.2105
     14 H          20.1969   76.2065    4.8338 H       1  UNL1        0.2106
     15 O          22.9392   73.9767    7.8027 O.2     1  UNL1       -0.2464
     16 O          27.2275   75.1616    6.5984 O.2     1  UNL1       -0.2670
     17 N          23.4796   74.0069    5.5299 N.ar    1  UNL1       -0.2551
     18 N          25.0740   74.5674    7.2003 N.ar    1  UNL1       -0.2743
     19 C          23.7637   74.1674    6.9068 C.ar    1  UNL1        0.3323
     20 C          24.4682   74.2405    4.5818 C.ar    1  UNL1        0.0869
     21 C          25.7127   74.6213    4.8769 C.ar    1  UNL1        0.0795
     22 C          26.0914   74.8124    6.2923 C.ar    1  UNL1        0.2626
     23 H          25.2950   74.6877    8.1521 H       1  UNL1        0.1734
     24 O          21.7319   71.0723   -1.3509 O.3     1  UNL1       -0.2703
     25 P          21.8907   72.0020   -2.6639 P.3     1  UNL1        0.2208
     26 O          23.1352   71.3258   -3.4476 O.co2   1  UNL1       -0.4371
     27 O          22.0674   73.4629   -2.3663 O.2     1  UNL1       -0.5170
     28 O          20.6018   71.6545   -3.5698 O.3     1  UNL1       -0.2858
     29 O          19.5212   69.5882   -3.9844 O.3     1  UNL1       -0.3226
     30 O          18.9830   71.5543   -7.5779 O.3     1  UNL1       -0.3794
     31 O          21.5475   71.6899   -6.1853 O.3     1  UNL1       -0.3775
     32 O          16.7724   71.3026   -5.7069 O.3     1  UNL1       -0.3792
     33 C          19.1340   71.4441   -6.1626 C.3     1  UNL1        0.1718
     34 C          20.4861   70.8073   -5.8402 C.3     1  UNL1        0.1968
     35 C          17.9945   70.5711   -5.6321 C.3     1  UNL1        0.1723
     36 C          20.5881   70.4628   -4.3537 C.3     1  UNL1        0.2706
     37 C          18.2325   70.1662   -4.1802 C.3     1  UNL1        0.1830
     38 H          19.6964   72.1049   -7.9374 H       1  UNL1        0.2105
     39 H          21.4888   71.9129   -7.1272 H       1  UNL1        0.2106
     40 H          16.6092   71.5664   -6.6259 H       1  UNL1        0.2106
     41 O          18.0052   67.9722   -3.3826 O.co2   1  UNL1       -0.5466
     42 O          16.0864   69.1324   -3.7970 O.co2   1  UNL1       -0.5466
     43 C          17.3063   69.0651   -3.7779 C.2     1  UNL1        0.0799
@<TRIPOS>UNITY_ATOM_ATTR
2 1
charge -1
26 1
charge -1
41 1
charge -1
@<TRIPOS>BOND
     1     1     4    1
     2     1    24    1
     3     1     2    1
     4     1     3    2
     5    25    28    1
     6    25    24    1
     7    25    26    1
     8    25    27    2
     9     6    11    1
    10     6    12    1
    11    29    36    1
    12    29    37    1
    13     7     9    1
    14     7    13    1
    15     8    10    1
    16     8    14    1
    17     4     5    1
    18    28    36    1
    19    30    33    1
    20    30    38    1
    21    31    34    1
    22    31    39    1
    23    32    35    1
    24    32    40    1
    25    41    43   ar
    26    15    19    2
    27    42    43   ar
    28    16    22    2
    29    17    12    1
    30    17    19   ar
    31    17    20   ar
    32    18    19   ar
    33    18    22   ar
    34    18    23    1
    35     9    10    1
    36     9    11    1
    37    10    12    1
    38    11     5    1
    39    33    34    1
    40    33    35    1
    41    34    36    1
    42    35    37    1
    43    37    43    1
    44    20    21   ar
    45    21    22   ar
@<TRIPOS>MOLECULE
*****
 43 45 0 0 0
SMALL
GASTEIGER

@<TRIPOS>ATOM
      1 P          22.7788   71.5435   -2.9384 P.3     1  UNL1        0.2189
      2 O          24.2687   70.9128   -2.9719 O.co2   1  UNL1       -0.4371
      3 O          21.6803   70.5595   -2.6611 O.2     1  UNL1       -0.5170
      4 O          22.6655   72.3470   -4.3383 O.3     1  UNL1       -0.3112
      5 C          21.3794   72.5757   -4.8844 C.3     1  UNL1        0.1811
      6 O          20.4895   70.5681   -5.8618 O.3     1  UNL1       -0.3308
      7 O          20.8112   71.9369   -8.5103 O.3     1  UNL1       -0.3794
      8 O          18.1462   72.2259   -8.0101 O.3     1  UNL1       -0.3779
      9 C          20.4398   72.4889   -7.2470 C.3     1  UNL1        0.1713
     10 C          19.0164   72.1031   -6.9045 C.3     1  UNL1        0.1895
     11 C          21.2342   71.7671   -6.1671 C.3     1  UNL1        0.1764
     12 C          19.1811   70.6639   -6.4469 C.3     1  UNL1        0.2383
     13 H          20.3164   72.3824   -9.2163 H       1  UNL1        0.2105
     14 H          18.0744   73.1601   -8.2629 H       1  UNL1        0.2106
     15 O          16.5793   69.7528   -7.0610 O.2     1  UNL1       -0.2464
     16 O          15.5110   69.2378   -2.6071 O.2     1  UNL1       -0.2670
     17 N          18.2026   70.2850   -5.4672 N.ar    1  UNL1       -0.2551
     18 N          16.0494   69.4982   -4.8421 N.ar    1  UNL1       -0.2743
     19 C          16.9245   69.8410   -5.8812 C.ar    1  UNL1        0.3323
     20 C          18.5130   70.3533   -4.1145 C.ar    1  UNL1        0.0869
     21 C          17.6684   70.0230   -3.1356 C.ar    1  UNL1        0.0795
     22 C          16.3122   69.5501   -3.4828 C.ar    1  UNL1        0.2626
     23 H          15.1529   69.1881   -5.1056 H       1  UNL1        0.1734
     24 O          22.9113   72.7297   -1.8483 O.3     1  UNL1       -0.2703
     25 P          23.4263   72.7103   -0.3160 P.3     1  UNL1        0.2208
     26 O          24.4603   73.9545   -0.2577 O.co2   1  UNL1       -0.4371
     27 O          24.0119   71.3986    0.1203 O.2     1  UNL1       -0.5170
     28 O          22.1547   73.1968    0.5494 O.3     1  UNL1       -0.2858
     29 O          21.0388   75.0735    1.4669 O.3     1  UNL1       -0.3226
     30 O          22.0103   72.9301    4.8625 O.3     1  UNL1       -0.3794
     31 O          23.9373   73.2072    2.6844 O.3     1  UNL1       -0.3775
     32 O          19.2787   72.9288    3.8679 O.3     1  UNL1       -0.3792
     33 C          21.6518   73.1086    3.4923 C.3     1  UNL1        0.1718
     34 C          22.7228   73.9414    2.7874 C.3     1  UNL1        0.1968
     35 C          20.3021   73.8285    3.4465 C.3     1  UNL1        0.1723
     36 C          22.2657   74.3471    1.3855 C.3     1  UNL1        0.2706
     37 C          19.9762   74.3121    2.0364 C.3     1  UNL1        0.1830
     38 H          22.8651   72.4744    4.9165 H       1  UNL1        0.2105
     39 H          24.2330   72.9463    3.5703 H       1  UNL1        0.2106
     40 H          19.4743   72.6135    4.7641 H       1  UNL1        0.2106
     41 O          19.2608   76.5179    1.6843 O.co2   1  UNL1       -0.5466
     42 O          17.6907   75.0115    2.3657 O.co2   1  UNL1       -0.5466
     43 C          18.8414   75.2837    2.0578 C.2     1  UNL1        0.0799
@<TRIPOS>UNITY_ATOM_ATTR
2 1
charge -1
26 1
charge -1
41 1
charge -1
@<TRIPOS>BOND
     1     1     4    1
     2     1    24    1
     3     1     2    1
     4     1     3    2
     5    25    28    1
     6    25    24    1
     7    25    26    1
     8    25    27    2
     9     6    11    1
    10     6    12    1
    11    29    36    1
    12    29    37    1
    13     7     9    1
    14     7    13    1
    15     8    10    1
    16     8    14    1
    17     4     5    1
    18    28    36    1
    19    30    33    1
    20    30    38    1
    21    31    34    1
    22    31    39    1
    23    32    35    1
    24    32    40    1
    25    41    43   ar
    26    15    19    2
    27    42    43   ar
    28    16    22    2
    29    17    12    1
    30    17    19   ar
    31    17    20   ar
    32    18    19   ar
    33    18    22   ar
    34    18    23    1
    35     9    10    1
    36     9    11    1
    37    10    12    1
    38    11     5    1
    39    33    34    1
    40    33    35    1
    41    34    36    1
    42    35    37    1
    43    37    43    1
    44    20    21   ar
    45    21    22   ar
@<TRIPOS>MOLECULE
*****
 43 45 0 0 0
SMALL
GASTEIGER

@<TRIPOS>ATOM
      1 P          20.8984   72.5986   -2.7284 P.3     1  UNL1        0.2189
      2 O          21.4517   73.3406   -4.0558 O.co2   1  UNL1       -0.4371
      3 O          21.8484   71.6156   -2.1094 O.2     1  UNL1       -0.5170
      4 O          19.4669   71.9993   -3.1864 O.3     1  UNL1       -0.3112
      5 C          18.6730   72.7551   -4.0825 C.3     1  UNL1        0.1811
      6 O          16.8696   72.0740   -5.5182 O.3     1  UNL1       -0.3308
      7 O          15.8671   70.4732   -3.1893 O.3     1  UNL1       -0.3794
      8 O          17.0862   68.5829   -4.7310 O.3     1  UNL1       -0.3779
      9 C          17.2109   70.7304   -3.5975 C.3     1  UNL1        0.1713
     10 C          17.5512   69.9131   -4.8257 C.3     1  UNL1        0.1895
     11 C          17.2744   72.1538   -4.1344 C.3     1  UNL1        0.1764
     12 C          16.8596   70.6972   -5.9279 C.3     1  UNL1        0.2383
     13 H          15.8016   69.5692   -2.8425 H       1  UNL1        0.2105
     14 H          17.5569   68.1260   -4.0157 H       1  UNL1        0.2106
     15 O          15.5648   70.7259   -8.4377 O.2     1  UNL1       -0.2464
     16 O          19.5493   70.2422  -10.7035 O.2     1  UNL1       -0.2670
     17 N          17.5345   70.5806   -7.1895 N.ar    1  UNL1       -0.2551
     18 N          17.5504   70.4839   -9.5637 N.ar    1  UNL1       -0.2743
     19 C          16.7906   70.6063   -8.3929 C.ar    1  UNL1        0.3323
     20 C          18.9169   70.4444   -7.2267 C.ar    1  UNL1        0.0869
     21 C          19.6272   70.3289   -8.3505 C.ar    1  UNL1        0.0795
     22 C          18.9262   70.3457   -9.6511 C.ar    1  UNL1        0.2626
     23 H          17.0544   70.4971  -10.4140 H       1  UNL1        0.1734
     24 O          20.4857   73.8320   -1.7686 O.3     1  UNL1       -0.2703
     25 P          21.3892   74.9525   -1.0325 P.3     1  UNL1        0.2208
     26 O          20.5871   76.3271   -1.3281 O.co2   1  UNL1       -0.4371
     27 O          22.8258   74.9689   -1.4683 O.2     1  UNL1       -0.5170
     28 O          21.1706   74.6843    0.5432 O.3     1  UNL1       -0.2858
     29 O          20.9582   72.3473    0.8633 O.3     1  UNL1       -0.3226
     30 O          20.5515   73.7648    4.7225 O.3     1  UNL1       -0.3794
     31 O          19.2424   75.1318    2.4971 O.3     1  UNL1       -0.3775
     32 O          23.0363   72.5111    3.8827 O.3     1  UNL1       -0.3792
     33 C          21.0381   73.7602    3.3804 C.3     1  UNL1        0.1718
     34 C          19.8612   73.8535    2.4090 C.3     1  UNL1        0.1968
     35 C          21.8074   72.4556    3.1608 C.3     1  UNL1        0.1723
     36 C          20.3206   73.6208    0.9690 C.3     1  UNL1        0.2706
     37 C          22.1191   72.2346    1.6835 C.3     1  UNL1        0.1830
     38 H          20.0591   74.5848    4.8852 H       1  UNL1        0.2105
     39 H          18.9487   75.2862    3.4083 H       1  UNL1        0.2106
     40 H          22.8519   72.6517    4.8246 H       1  UNL1        0.2106
     41 O          21.5348   70.0684    0.9995 O.co2   1  UNL1       -0.5466
     42 O          23.7040   70.4169    1.6097 O.co2   1  UNL1       -0.5466
     43 C          22.5667   70.8300    1.4401 C.2     1  UNL1        0.0799
@<TRIPOS>UNITY_ATOM_ATTR
2 1
charge -1
26 1
charge -1
41 1
charge -1
@<TRIPOS>BOND
     1     1     4    1
     2     1    24    1
     3     1     2    1
     4     1     3    2
     5    25    28    1
     6    25    24    1
     7    25    26    1
     8    25    27    2
     9     6    11    1
    10     6    12    1
    11    29    36    1
    12    29    37    1
    13     7     9    1
    14     7    13    1
    15     8    10    1
    16     8    14    1
    17     4     5    1
    18    28    36    1
    19    30    33    1
    20    30    38    1
    21    31    34    1
    22    31    39    1
    23    32    35    1
    24    32    40    1
    25    41    43   ar
    26    15    19    2
    27    42    43   ar
    28    16    22    2
    29    17    12    1
    30    17    19   ar
    31    17    20   ar
    32    18    19   ar
    33    18    22   ar
    34    18    23    1
    35     9    10    1
    36     9    11    1
    37    10    12    1
    38    11     5    1
    39    33    34    1
    40    33    35    1
    41    34    36    1
    42    35    37    1
    43    37    43    1
    44    20    21   ar
    45    21    22   ar
@<TRIPOS>MOLECULE
*****
 43 45 0 0 0
SMALL
GASTEIGER

@<TRIPOS>ATOM
      1 P          20.6504   71.0346   -1.2125 P.3     1  UNL1        0.2189
      2 O          21.9317   70.8661   -2.1865 O.co2   1  UNL1       -0.4371
      3 O          20.8783   70.6204    0.2117 O.2     1  UNL1       -0.5170
      4 O          19.4658   70.2538   -1.9903 O.3     1  UNL1       -0.3112
      5 C          19.1988   70.5994   -3.3371 C.3     1  UNL1        0.1811
      6 O          17.5067   71.5359   -4.7644 O.3     1  UNL1       -0.3308
      7 O          15.5291   69.9966   -3.1179 O.3     1  UNL1       -0.3794
      8 O          15.7824   68.4471   -5.3475 O.3     1  UNL1       -0.3779
      9 C          16.8518   69.6336   -3.5142 C.3     1  UNL1        0.1713
     10 C          16.8760   69.2625   -4.9819 C.3     1  UNL1        0.1895
     11 C          17.7113   70.8901   -3.4891 C.3     1  UNL1        0.1764
     12 C          16.8392   70.6252   -5.6524 C.3     1  UNL1        0.2383
     13 H          14.9613   69.2097   -3.1263 H       1  UNL1        0.2105
     14 H          15.8517   67.5913   -4.8949 H       1  UNL1        0.2106
     15 O          15.5321   70.5273   -8.1540 O.2     1  UNL1       -0.2464
     16 O          19.5261   70.6513  -10.4511 O.2     1  UNL1       -0.2670
     17 N          17.5132   70.6307   -6.9199 N.ar    1  UNL1       -0.2551
     18 N          17.5226   70.5881   -9.2957 N.ar    1  UNL1       -0.2743
     19 C          16.7630   70.5785   -8.1184 C.ar    1  UNL1        0.3323
     20 C          18.9007   70.6889   -6.9674 C.ar    1  UNL1        0.0869
     21 C          19.6108   70.6975   -8.0972 C.ar    1  UNL1        0.0795
     22 C          18.9035   70.6445   -9.3934 C.ar    1  UNL1        0.2626
     23 H          17.0225   70.5504  -10.1429 H       1  UNL1        0.1734
     24 O          20.2495   72.5885   -1.4058 O.3     1  UNL1       -0.2703
     25 P          20.9572   73.9414   -0.8742 P.3     1  UNL1        0.2208
     26 O          19.8143   75.0668   -1.0922 O.co2   1  UNL1       -0.4371
     27 O          22.2668   74.2532   -1.5386 O.2     1  UNL1       -0.5170
     28 O          21.0457   73.7554    0.7258 O.3     1  UNL1       -0.2858
     29 O          21.7716   75.4771    2.1811 O.3     1  UNL1       -0.3226
     30 O          22.4182   72.1055    4.4793 O.3     1  UNL1       -0.3794
     31 O          23.0970   72.1134    1.6378 O.3     1  UNL1       -0.3775
     32 O          20.1477   73.8346    5.0320 O.3     1  UNL1       -0.3792
     33 C          21.7596   72.9081    3.4995 C.3     1  UNL1        0.1718
     34 C          22.7449   73.2701    2.3880 C.3     1  UNL1        0.1968
     35 C          21.2487   74.1741    4.1911 C.3     1  UNL1        0.1723
     36 C          22.1452   74.3128    1.4435 C.3     1  UNL1        0.2706
     37 C          20.7845   75.2146    3.1760 C.3     1  UNL1        0.1830
     38 H          22.7515   71.2951    4.0627 H       1  UNL1        0.2105
     39 H          23.4779   71.4475    2.2310 H       1  UNL1        0.2106
     40 H          20.4298   73.1729    5.6826 H       1  UNL1        0.2106
     41 O          20.5384   77.5304    2.8962 O.co2   1  UNL1       -0.5466
     42 O          20.5188   76.7329    5.0323 O.co2   1  UNL1       -0.5466
     43 C          20.6023   76.5468    3.8275 C.2     1  UNL1        0.0799
@<TRIPOS>UNITY_ATOM_ATTR
2 1
charge -1
26 1
charge -1
41 1
charge -1
@<TRIPOS>BOND
     1     1     4    1
     2     1    24    1
     3     1     2    1
     4     1     3    2
     5    25    28    1
     6    25    24    1
     7    25    26    1
     8    25    27    2
     9     6    11    1
    10     6    12    1
    11    29    36    1
    12    29    37    1
    13     7     9    1
    14     7    13    1
    15     8    10    1
    16     8    14    1
    17     4     5    1
    18    28    36    1
    19    30    33    1
    20    30    38    1
    21    31    34    1
    22    31    39    1
    23    32    35    1
    24    32    40    1
    25    41    43   ar
    26    15    19    2
    27    42    43   ar
    28    16    22    2
    29    17    12    1
    30    17    19   ar
    31    17    20   ar
    32    18    19   ar
    33    18    22   ar
    34    18    23    1
    35     9    10    1
    36     9    11    1
    37    10    12    1
    38    11     5    1
    39    33    34    1
    40    33    35    1
    41    34    36    1
    42    35    37    1
    43    37    43    1
    44    20    21   ar
    45    21    22   ar
