@<TRIPOS>MOLECULE
*****
 43 45 0 0 0
SMALL
GASTEIGER

@<TRIPOS>ATOM
      1 P          22.9457   71.3886   -2.4272 P.3     1  UNL1        0.2189
      2 O          22.8009   72.9980   -2.3473 O.co2   1  UNL1       -0.4371
      3 O          24.1719   70.8971   -3.1388 O.2     1  UNL1       -0.5170
      4 O          21.5320   70.9016   -3.0453 O.3     1  UNL1       -0.3112
      5 C          20.8642   71.7540   -3.9593 C.3     1  UNL1        0.1811
      6 O          18.6497   72.0871   -4.8302 O.3     1  UNL1       -0.3308
      7 O          17.6736   70.6631   -2.3786 O.3     1  UNL1       -0.3794
      8 O          17.5440   68.7189   -4.2864 O.3     1  UNL1       -0.3779
      9 C          18.8496   70.4269   -3.1510 C.3     1  UNL1        0.1713
     10 C          18.4929   69.7516   -4.4588 C.3     1  UNL1        0.1895
     11 C          19.3794   71.7751   -3.6233 C.3     1  UNL1        0.1764
     12 C          17.9515   70.9127   -5.2755 C.3     1  UNL1        0.2383
     13 H          17.3172   69.8164   -2.0656 H       1  UNL1        0.2105
     14 H          17.9358   68.0040   -3.7609 H       1  UNL1        0.2106
     15 O          15.9002   70.7842   -7.2129 O.2     1  UNL1       -0.2464
     16 O          18.9269   70.2587  -10.6486 O.2     1  UNL1       -0.2670
     17 N          18.1751   70.7431   -6.6836 N.ar    1  UNL1       -0.2551
     18 N          17.4089   70.5228   -8.9221 N.ar    1  UNL1       -0.2743
     19 C          17.0758   70.6902   -7.5719 C.ar    1  UNL1        0.3323
     20 C          19.4729   70.6316   -7.1707 C.ar    1  UNL1        0.0869
     21 C          19.7736   70.4710   -8.4610 C.ar    1  UNL1        0.0795
     22 C          18.6829   70.4058   -9.4550 C.ar    1  UNL1        0.2626
     23 H          16.6592   70.4828   -9.5594 H       1  UNL1        0.1734
     24 O          22.8401   70.9369   -0.8787 O.3     1  UNL1       -0.2703
     25 P          21.8062   71.3711    0.2856 P.3     1  UNL1        0.2208
     26 O          21.6056   70.0066    1.1314 O.co2   1  UNL1       -0.4371
     27 O          20.5303   71.9796   -0.2200 O.2     1  UNL1       -0.5170
     28 O          22.6656   72.3308    1.2580 O.3     1  UNL1       -0.2858
     29 O          24.1682   72.3243    3.0906 O.3     1  UNL1       -0.3258
     30 O          21.0574   74.4378    4.7955 O.3     1  UNL1       -0.3794
     31 O          23.4734   75.8099    4.0688 O.3     1  UNL1       -0.3794
     32 O          20.4954   72.2112    3.0331 O.3     1  UNL1       -0.3775
     33 C          21.9223   74.0200    3.7359 C.3     1  UNL1        0.1715
     34 C          23.3577   74.3904    4.1142 C.3     1  UNL1        0.1694
     35 C          21.7884   72.5099    3.5484 C.3     1  UNL1        0.1967
     36 C          24.3676   73.7411    3.1584 C.3     1  UNL1        0.1761
     37 C          22.8703   71.9581    2.6183 C.3     1  UNL1        0.2704
     38 H          21.1372   75.3959    4.9193 H       1  UNL1        0.2105
     39 H          22.8301   76.2076    4.6763 H       1  UNL1        0.2105
     40 H          19.8194   72.5655    3.6310 H       1  UNL1        0.2106
     41 O          26.6545   73.1194    2.8544 O.3     1  UNL1       -0.3794
     42 C          25.8090   73.9677    3.6092 C.3     1  UNL1        0.1693
     43 H          27.5752   73.2529    3.1304 H       1  UNL1        0.2105
@<TRIPOS>UNITY_ATOM_ATTR
2 1
charge -1
26 1
charge -1
@<TRIPOS>BOND
     1    25    28    1
     2    25    24    1
     3    25    26    1
     4    25    27    2
     5     1     4    1
     6     1    24    1
     7     1     2    1
     8     1     3    2
     9     6    11    1
    10     6    12    1
    11    29    36    1
    12    29    37    1
    13     7     9    1
    14     7    13    1
    15     8    10    1
    16     8    14    1
    17    28    37    1
    18     4     5    1
    19    30    33    1
    20    30    38    1
    21    31    34    1
    22    31    39    1
    23    32    35    1
    24    32    40    1
    25    41    42    1
    26    41    43    1
    27    15    19    2
    28    16    22    2
    29    17    12    1
    30    17    19   ar
    31    17    20   ar
    32    18    19   ar
    33    18    22   ar
    34    18    23    1
    35     9    10    1
    36     9    11    1
    37    10    12    1
    38    11     5    1
    39    33    34    1
    40    33    35    1
    41    34    36    1
    42    35    37    1
    43    36    42    1
    44    20    21   ar
    45    21    22   ar
@<TRIPOS>MOLECULE
*****
 43 45 0 0 0
SMALL
GASTEIGER

@<TRIPOS>ATOM
      1 P          21.7854   72.4987   -4.8213 P.3     1  UNL1        0.2189
      2 O          21.1005   73.9611   -4.9191 O.co2   1  UNL1       -0.4371
      3 O          22.9186   72.2644   -5.7765 O.2     1  UNL1       -0.5170
      4 O          20.5377   71.4762   -4.9470 O.3     1  UNL1       -0.3112
      5 C          19.9453   70.9831   -3.7580 C.3     1  UNL1        0.1811
      6 O          18.1322   71.9032   -5.0385 O.3     1  UNL1       -0.3308
      7 O          16.3139   70.6884   -2.9869 O.3     1  UNL1       -0.3794
      8 O          16.1524   68.9126   -5.0502 O.3     1  UNL1       -0.3779
      9 C          17.5410   70.1873   -3.5146 C.3     1  UNL1        0.1713
     10 C          17.3363   69.6737   -4.9245 C.3     1  UNL1        0.1895
     11 C          18.4732   71.3713   -3.7396 C.3     1  UNL1        0.1764
     12 C          17.2901   70.9635   -5.7261 C.3     1  UNL1        0.2383
     13 H          15.7024   69.9503   -2.8346 H       1  UNL1        0.2105
     14 H          16.2310   68.1027   -4.5224 H       1  UNL1        0.2106
     15 O          15.6612   70.3572   -7.9525 O.2     1  UNL1       -0.2464
     16 O          19.2708   70.3329  -10.8181 O.2     1  UNL1       -0.2670
     17 N          17.7778   70.7936   -7.0657 N.ar    1  UNL1       -0.2551
     18 N          17.4598   70.3458   -9.3776 N.ar    1  UNL1       -0.2743
     19 C          16.8763   70.4895   -8.1123 C.ar    1  UNL1        0.3323
     20 C          19.1362   70.9288   -7.3310 C.ar    1  UNL1        0.0869
     21 C          19.6769   70.7873   -8.5430 C.ar    1  UNL1        0.0795
     22 C          18.8040   70.4692   -9.6914 C.ar    1  UNL1        0.2626
     23 H          16.8511   70.1335  -10.1220 H       1  UNL1        0.1734
     24 O          22.1885   72.3898   -3.2597 O.3     1  UNL1       -0.2703
     25 P          23.6090   72.0912   -2.5483 P.3     1  UNL1        0.2208
     26 O          24.4954   73.3896   -2.9302 O.co2   1  UNL1       -0.4371
     27 O          24.2295   70.7811   -2.9390 O.2     1  UNL1       -0.5170
     28 O          23.3159   72.2479   -0.9689 O.3     1  UNL1       -0.2858
     29 O          24.3983   70.9736    0.7107 O.3     1  UNL1       -0.3258
     30 O          20.8561   71.7794    2.6739 O.3     1  UNL1       -0.3794
     31 O          23.2658   73.1097    3.4934 O.3     1  UNL1       -0.3794
     32 O          20.8366   71.2084   -0.1639 O.3     1  UNL1       -0.3775
     33 C          21.9512   72.0549    1.7963 C.3     1  UNL1        0.1715
     34 C          23.2453   71.9919    2.6100 C.3     1  UNL1        0.1694
     35 C          21.9683   71.0148    0.6777 C.3     1  UNL1        0.1967
     36 C          24.4768   72.0117    1.6945 C.3     1  UNL1        0.1761
     37 C          23.2576   71.0883   -0.1423 C.3     1  UNL1        0.2704
     38 H          20.8392   72.4366    3.3862 H       1  UNL1        0.2105
     39 H          22.4827   73.0855    4.0655 H       1  UNL1        0.2105
     40 H          20.0269   71.1593    0.3669 H       1  UNL1        0.2106
     41 O          26.4696   70.7077    1.8873 O.3     1  UNL1       -0.3794
     42 C          25.7719   71.7913    2.4732 C.3     1  UNL1        0.1693
     43 H          27.2963   70.5561    2.3724 H       1  UNL1        0.2105
@<TRIPOS>UNITY_ATOM_ATTR
2 1
charge -1
26 1
charge -1
@<TRIPOS>BOND
     1    25    28    1
     2    25    24    1
     3    25    26    1
     4    25    27    2
     5     1     4    1
     6     1    24    1
     7     1     2    1
     8     1     3    2
     9     6    11    1
    10     6    12    1
    11    29    36    1
    12    29    37    1
    13     7     9    1
    14     7    13    1
    15     8    10    1
    16     8    14    1
    17    28    37    1
    18     4     5    1
    19    30    33    1
    20    30    38    1
    21    31    34    1
    22    31    39    1
    23    32    35    1
    24    32    40    1
    25    41    42    1
    26    41    43    1
    27    15    19    2
    28    16    22    2
    29    17    12    1
    30    17    19   ar
    31    17    20   ar
    32    18    19   ar
    33    18    22   ar
    34    18    23    1
    35     9    10    1
    36     9    11    1
    37    10    12    1
    38    11     5    1
    39    33    34    1
    40    33    35    1
    41    34    36    1
    42    35    37    1
    43    36    42    1
    44    20    21   ar
    45    21    22   ar
@<TRIPOS>MOLECULE
*****
 43 45 0 0 0
SMALL
GASTEIGER

@<TRIPOS>ATOM
      1 P          23.1439   71.5090   -2.7941 P.3     1  UNL1        0.2189
      2 O          23.2631   73.1163   -2.6535 O.co2   1  UNL1       -0.4371
      3 O          24.4126   70.8114   -3.1881 O.2     1  UNL1       -0.5170
      4 O          21.8875   71.2985   -3.7917 O.3     1  UNL1       -0.3112
      5 C          21.6174   72.2981   -4.7590 C.3     1  UNL1        0.1811
      6 O          20.5556   70.4682   -5.8983 O.3     1  UNL1       -0.3308
      7 O          20.9276   72.0617   -8.4110 O.3     1  UNL1       -0.3794
      8 O          18.3036   72.5003   -7.8120 O.3     1  UNL1       -0.3779
      9 C          20.6258   72.5142   -7.0921 C.3     1  UNL1        0.1713
     10 C          19.1840   72.2047   -6.7470 C.3     1  UNL1        0.1895
     11 C          21.3846   71.6322   -6.1083 C.3     1  UNL1        0.1764
     12 C          19.2465   70.7191   -6.4353 C.3     1  UNL1        0.2383
     13 H          20.4545   72.6101   -9.0570 H       1  UNL1        0.2105
     14 H          18.2988   73.4570   -7.9718 H       1  UNL1        0.2106
     15 O          16.6297   69.8736   -7.0798 O.2     1  UNL1       -0.2464
     16 O          15.5543   69.2140   -2.6470 O.2     1  UNL1       -0.2670
     17 N          18.2620   70.3203   -5.4694 N.ar    1  UNL1       -0.2551
     18 N          16.0964   69.5457   -4.8721 N.ar    1  UNL1       -0.2743
     19 C          16.9768   69.9135   -5.8976 C.ar    1  UNL1        0.3323
     20 C          18.5749   70.3346   -4.1145 C.ar    1  UNL1        0.0869
     21 C          17.7236   69.9820   -3.1490 C.ar    1  UNL1        0.0795
     22 C          16.3601   69.5443   -3.5115 C.ar    1  UNL1        0.2626
     23 H          15.1952   69.2591   -5.1466 H       1  UNL1        0.1734
     24 O          22.5478   71.0618   -1.3597 O.3     1  UNL1       -0.2703
     25 P          21.3411   71.6727   -0.4745 P.3     1  UNL1        0.2208
     26 O          20.9383   70.4461    0.5006 O.co2   1  UNL1       -0.4371
     27 O          20.2012   72.2211   -1.2830 O.2     1  UNL1       -0.5170
     28 O          22.0511   72.7490    0.4964 O.3     1  UNL1       -0.2858
     29 O          23.3025   71.6160    2.1599 O.3     1  UNL1       -0.3258
     30 O          23.7026   75.4827    3.5525 O.3     1  UNL1       -0.3794
     31 O          25.9531   74.1713    2.3428 O.3     1  UNL1       -0.3794
     32 O          21.1894   74.6124    2.4097 O.3     1  UNL1       -0.3775
     33 C          23.5887   74.4612    2.5580 C.3     1  UNL1        0.1715
     34 C          24.7609   73.4930    2.7286 C.3     1  UNL1        0.1694
     35 C          22.2586   73.7327    2.7407 C.3     1  UNL1        0.1967
     36 C          24.5651   72.2308    1.8780 C.3     1  UNL1        0.1761
     37 C          22.1865   72.4657    1.8866 C.3     1  UNL1        0.2704
     38 H          24.5448   75.9495    3.4417 H       1  UNL1        0.2105
     39 H          26.0647   74.9666    2.8871 H       1  UNL1        0.2105
     40 H          21.2460   75.4103    2.9573 H       1  UNL1        0.2106
     41 O          25.0210   70.0293    2.6870 O.3     1  UNL1       -0.3794
     42 C          25.6423   71.1835    2.1522 C.3     1  UNL1        0.1693
     43 H          25.6945   69.3540    2.8663 H       1  UNL1        0.2105
@<TRIPOS>UNITY_ATOM_ATTR
2 1
charge -1
26 1
charge -1
@<TRIPOS>BOND
     1    25    28    1
     2    25    24    1
     3    25    26    1
     4    25    27    2
     5     1     4    1
     6     1    24    1
     7     1     2    1
     8     1     3    2
     9     6    11    1
    10     6    12    1
    11    29    36    1
    12    29    37    1
    13     7     9    1
    14     7    13    1
    15     8    10    1
    16     8    14    1
    17    28    37    1
    18     4     5    1
    19    30    33    1
    20    30    38    1
    21    31    34    1
    22    31    39    1
    23    32    35    1
    24    32    40    1
    25    41    42    1
    26    41    43    1
    27    15    19    2
    28    16    22    2
    29    17    12    1
    30    17    19   ar
    31    17    20   ar
    32    18    19   ar
    33    18    22   ar
    34    18    23    1
    35     9    10    1
    36     9    11    1
    37    10    12    1
    38    11     5    1
    39    33    34    1
    40    33    35    1
    41    34    36    1
    42    35    37    1
    43    36    42    1
    44    20    21   ar
    45    21    22   ar
@<TRIPOS>MOLECULE
*****
 43 45 0 0 0
SMALL
GASTEIGER

@<TRIPOS>ATOM
      1 P          20.4537   71.3357   -1.6741 P.3     1  UNL1        0.2189
      2 O          19.3702   72.4737   -1.2888 O.co2   1  UNL1       -0.4371
      3 O          21.5058   71.7678   -2.6527 O.2     1  UNL1       -0.5170
      4 O          19.5475   70.0744   -2.1279 O.3     1  UNL1       -0.3112
      5 C          19.1530   69.9790   -3.4855 C.3     1  UNL1        0.1811
      6 O          17.5699   71.1895   -4.8280 O.3     1  UNL1       -0.3308
      7 O          15.4424   69.7086   -3.3208 O.3     1  UNL1       -0.3794
      8 O          15.5676   68.3369   -5.6744 O.3     1  UNL1       -0.3779
      9 C          16.7273   69.2570   -3.7457 C.3     1  UNL1        0.1713
     10 C          16.7307   69.0118   -5.2402 C.3     1  UNL1        0.1895
     11 C          17.7015   70.4208   -3.6122 C.3     1  UNL1        0.1764
     12 C          16.8271   70.4243   -5.7911 C.3     1  UNL1        0.2383
     13 H          14.8032   68.9823   -3.3968 H       1  UNL1        0.2105
     14 H          15.5523   67.4434   -5.2974 H       1  UNL1        0.2106
     15 O          15.5378   70.6387   -8.2951 O.2     1  UNL1       -0.2464
     16 O          19.5471   70.6071  -10.5678 O.2     1  UNL1       -0.2670
     17 N          17.5096   70.4746   -7.0532 N.ar    1  UNL1       -0.2551
     18 N          17.5352   70.6229   -9.4247 N.ar    1  UNL1       -0.2743
     19 C          16.7685   70.5816   -8.2531 C.ar    1  UNL1        0.3323
     20 C          18.8985   70.4182   -7.0927 C.ar    1  UNL1        0.0869
     21 C          19.6147   70.4574   -8.2182 C.ar    1  UNL1        0.0795
     22 C          18.9170   70.5687   -9.5155 C.ar    1  UNL1        0.2626
     23 H          17.0403   70.6970  -10.2729 H       1  UNL1        0.1734
     24 O          21.0237   70.8740   -0.2336 O.3     1  UNL1       -0.2703
     25 P          21.6446   71.7325    0.9871 P.3     1  UNL1        0.2208
     26 O          22.3834   72.9616    0.2381 O.co2   1  UNL1       -0.4371
     27 O          22.5323   70.9434    1.9054 O.2     1  UNL1       -0.5170
     28 O          20.3653   72.4035    1.7069 O.3     1  UNL1       -0.2858
     29 O          21.0596   73.3467    3.7672 O.3     1  UNL1       -0.3258
     30 O          23.6148   75.3614    1.2250 O.3     1  UNL1       -0.3794
     31 O          24.6498   73.2971    2.9326 O.3     1  UNL1       -0.3794
     32 O          20.8858   74.8389    0.4133 O.3     1  UNL1       -0.3775
     33 C          22.8444   74.2473    1.6842 C.3     1  UNL1        0.1715
     34 C          23.3475   73.8572    3.0754 C.3     1  UNL1        0.1694
     35 C          21.3712   74.6474    1.7378 C.3     1  UNL1        0.1967
     36 C          22.4027   72.8493    3.7436 C.3     1  UNL1        0.1761
     37 C          20.5274   73.5992    2.4654 C.3     1  UNL1        0.2704
     38 H          24.5513   75.1138    1.1882 H       1  UNL1        0.2105
     39 H          25.2364   73.9434    2.5090 H       1  UNL1        0.2105
     40 H          21.4280   75.5048   -0.0365 H       1  UNL1        0.2106
     41 O          21.8278   73.1438    6.0440 O.3     1  UNL1       -0.3794
     42 C          22.7991   72.5664    5.1910 C.3     1  UNL1        0.1693
     43 H          22.0670   72.9714    6.9686 H       1  UNL1        0.2105
@<TRIPOS>UNITY_ATOM_ATTR
2 1
charge -1
26 1
charge -1
@<TRIPOS>BOND
     1    25    28    1
     2    25    24    1
     3    25    26    1
     4    25    27    2
     5     1     4    1
     6     1    24    1
     7     1     2    1
     8     1     3    2
     9     6    11    1
    10     6    12    1
    11    29    36    1
    12    29    37    1
    13     7     9    1
    14     7    13    1
    15     8    10    1
    16     8    14    1
    17    28    37    1
    18     4     5    1
    19    30    33    1
    20    30    38    1
    21    31    34    1
    22    31    39    1
    23    32    35    1
    24    32    40    1
    25    41    42    1
    26    41    43    1
    27    15    19    2
    28    16    22    2
    29    17    12    1
    30    17    19   ar
    31    17    20   ar
    32    18    19   ar
    33    18    22   ar
    34    18    23    1
    35     9    10    1
    36     9    11    1
    37    10    12    1
    38    11     5    1
    39    33    34    1
    40    33    35    1
    41    34    36    1
    42    35    37    1
    43    36    42    1
    44    20    21   ar
    45    21    22   ar
@<TRIPOS>MOLECULE
*****
 43 45 0 0 0
SMALL
GASTEIGER

@<TRIPOS>ATOM
      1 P          22.9741   72.3165   -3.4268 P.3     1  UNL1        0.2189
      2 O          22.8883   70.8181   -2.8226 O.co2   1  UNL1       -0.4371
      3 O          24.2532   72.6392   -4.1418 O.2     1  UNL1       -0.5170
      4 O          22.6153   73.2649   -2.1660 O.3     1  UNL1       -0.3112
      5 C          21.5361   74.1746   -2.2898 C.3     1  UNL1        0.1811
      6 O          20.8519   72.5665   -0.6407 O.3     1  UNL1       -0.3308
      7 O          18.8134   74.5913    0.2165 O.3     1  UNL1       -0.3794
      8 O          20.7662   74.8806    2.0979 O.3     1  UNL1       -0.3779
      9 C          20.1457   74.7947   -0.2514 C.3     1  UNL1        0.1713
     10 C          21.1439   74.4094    0.8204 C.3     1  UNL1        0.1895
     11 C          20.4259   73.7599   -1.3339 C.3     1  UNL1        0.1764
     12 C          21.1336   72.8929    0.7300 C.3     1  UNL1        0.2383
     13 H          18.6112   75.2410    0.9086 H       1  UNL1        0.2105
     14 H          20.7883   75.8503    2.1046 H       1  UNL1        0.2106
     15 O          21.5659   70.1299    1.1263 O.2     1  UNL1       -0.2464
     16 O          26.0139   70.7848    2.1399 O.2     1  UNL1       -0.2670
     17 N          22.3949   72.3137    1.0976 N.ar    1  UNL1       -0.2551
     18 N          23.7803   70.4582    1.6305 N.ar    1  UNL1       -0.2743
     19 C          22.5052   70.9146    1.2729 C.ar    1  UNL1        0.3323
     20 C          23.5055   73.1304    1.2801 C.ar    1  UNL1        0.0869
     21 C          24.7142   72.6797    1.6223 C.ar    1  UNL1        0.0795
     22 C          24.9147   71.2303    1.8248 C.ar    1  UNL1        0.2626
     23 H          23.8810   69.4870    1.7584 H       1  UNL1        0.1734
     24 O          21.6471   72.4148   -4.3446 O.3     1  UNL1       -0.2703
     25 P          21.4446   72.9172   -5.8677 P.3     1  UNL1        0.2208
     26 O          22.6169   72.1450   -6.6720 O.co2   1  UNL1       -0.4371
     27 O          21.4611   74.4095   -6.0307 O.2     1  UNL1       -0.5170
     28 O          20.0798   72.2062   -6.3543 O.3     1  UNL1       -0.2858
     29 O          19.1073   70.0451   -6.3315 O.3     1  UNL1       -0.3258
     30 O          18.5906   70.9591  -10.3250 O.3     1  UNL1       -0.3794
     31 O          16.3181   70.9406   -8.5691 O.3     1  UNL1       -0.3794
     32 O          21.0153   71.7610   -8.9623 O.3     1  UNL1       -0.3775
     33 C          18.6648   71.2363   -8.9240 C.3     1  UNL1        0.1715
     34 C          17.5915   70.4091   -8.2138 C.3     1  UNL1        0.1694
     35 C          20.0558   70.8634   -8.4144 C.3     1  UNL1        0.1967
     36 C          17.7803   70.4466   -6.6913 C.3     1  UNL1        0.1761
     37 C          20.1219   70.8846   -6.8862 C.3     1  UNL1        0.2704
     38 H          17.7100   71.1941  -10.6550 H       1  UNL1        0.2105
     39 H          16.2117   70.9116   -9.5329 H       1  UNL1        0.2105
     40 H          20.9636   71.7381   -9.9301 H       1  UNL1        0.2106
     41 O          16.1287   70.2371   -4.9774 O.3     1  UNL1       -0.3794
     42 C          16.8184   69.5031   -5.9723 C.3     1  UNL1        0.1693
     43 H          15.5126   69.6495   -4.5118 H       1  UNL1        0.2105
@<TRIPOS>UNITY_ATOM_ATTR
2 1
charge -1
26 1
charge -1
@<TRIPOS>BOND
     1    25    28    1
     2    25    24    1
     3    25    26    1
     4    25    27    2
     5     1     4    1
     6     1    24    1
     7     1     2    1
     8     1     3    2
     9     6    11    1
    10     6    12    1
    11    29    36    1
    12    29    37    1
    13     7     9    1
    14     7    13    1
    15     8    10    1
    16     8    14    1
    17    28    37    1
    18     4     5    1
    19    30    33    1
    20    30    38    1
    21    31    34    1
    22    31    39    1
    23    32    35    1
    24    32    40    1
    25    41    42    1
    26    41    43    1
    27    15    19    2
    28    16    22    2
    29    17    12    1
    30    17    19   ar
    31    17    20   ar
    32    18    19   ar
    33    18    22   ar
    34    18    23    1
    35     9    10    1
    36     9    11    1
    37    10    12    1
    38    11     5    1
    39    33    34    1
    40    33    35    1
    41    34    36    1
    42    35    37    1
    43    36    42    1
    44    20    21   ar
    45    21    22   ar
@<TRIPOS>MOLECULE
*****
 43 45 0 0 0
SMALL
GASTEIGER

@<TRIPOS>ATOM
      1 P          21.9143   72.5170   -5.8627 P.3     1  UNL1        0.2189
      2 O          21.2520   73.9183   -5.3990 O.co2   1  UNL1       -0.4371
      3 O          23.0646   72.6449   -6.8175 O.2     1  UNL1       -0.5170
      4 O          20.6556   71.6486   -6.3914 O.3     1  UNL1       -0.3112
      5 C          20.0549   72.0095   -7.6230 C.3     1  UNL1        0.1811
      6 O          18.8711   69.9665   -7.1770 O.3     1  UNL1       -0.3308
      7 O          18.0815   70.0120  -10.0693 O.3     1  UNL1       -0.3794
      8 O          15.8405   70.9448   -8.8267 O.3     1  UNL1       -0.3779
      9 C          18.2437   71.1002   -9.1612 C.3     1  UNL1        0.1713
     10 C          17.0842   71.1503   -8.1882 C.3     1  UNL1        0.1895
     11 C          19.4154   70.7748   -8.2433 C.3     1  UNL1        0.1764
     12 C          17.4363   70.0332   -7.2206 C.3     1  UNL1        0.2383
     13 H          17.3389   70.1971  -10.6662 H       1  UNL1        0.2105
     14 H          15.6617   71.6817   -9.4315 H       1  UNL1        0.2106
     15 O          16.3277   68.0538   -5.5382 O.2     1  UNL1       -0.2464
     16 O          15.5650   71.0932   -2.1587 O.2     1  UNL1       -0.2670
     17 N          16.9405   70.2794   -5.8959 N.ar    1  UNL1       -0.2551
     18 N          15.9490   69.5688   -3.8567 N.ar    1  UNL1       -0.2743
     19 C          16.4025   69.2160   -5.1342 C.ar    1  UNL1        0.3323
     20 C          16.9908   71.5636   -5.3647 C.ar    1  UNL1        0.0869
     21 C          16.5530   71.8837   -4.1453 C.ar    1  UNL1        0.0795
     22 C          15.9763   70.8308   -3.2846 C.ar    1  UNL1        0.2626
     23 H          15.5698   68.8443   -3.3081 H       1  UNL1        0.1734
     24 O          22.2817   71.8062   -4.4582 O.3     1  UNL1       -0.2703
     25 P          23.5019   72.0578   -3.4283 P.3     1  UNL1        0.2208
     26 O          24.4533   73.0947   -4.2265 O.co2   1  UNL1       -0.4371
     27 O          24.1941   70.8045   -2.9764 O.2     1  UNL1       -0.5170
     28 O          22.8561   72.9325   -2.2355 O.3     1  UNL1       -0.2858
     29 O          21.5493   71.7970   -0.6170 O.3     1  UNL1       -0.3258
     30 O          20.2389   75.6531    0.0642 O.3     1  UNL1       -0.3794
     31 O          21.9619   74.3820    1.9784 O.3     1  UNL1       -0.3794
     32 O          20.7692   74.7647   -2.6393 O.3     1  UNL1       -0.3775
     33 C          21.1921   74.6410   -0.2713 C.3     1  UNL1        0.1715
     34 C          21.3152   73.6852    0.9170 C.3     1  UNL1        0.1694
     35 C          20.7109   73.8945   -1.5142 C.3     1  UNL1        0.1967
     36 C          22.1125   72.4299    0.5380 C.3     1  UNL1        0.1761
     37 C          21.5408   72.6359   -1.7737 C.3     1  UNL1        0.2704
     38 H          20.5388   76.1312    0.8523 H       1  UNL1        0.2105
     39 H          21.4486   75.1727    2.2077 H       1  UNL1        0.2105
     40 H          20.2398   75.5574   -2.4626 H       1  UNL1        0.2106
     41 O          21.6128   70.1732    1.1434 O.3     1  UNL1       -0.3794
     42 C          22.1135   71.3929    1.6590 C.3     1  UNL1        0.1693
     43 H          21.6079   69.5037    1.8458 H       1  UNL1        0.2105
@<TRIPOS>UNITY_ATOM_ATTR
2 1
charge -1
26 1
charge -1
@<TRIPOS>BOND
     1    25    28    1
     2    25    24    1
     3    25    26    1
     4    25    27    2
     5     1     4    1
     6     1    24    1
     7     1     2    1
     8     1     3    2
     9     6    11    1
    10     6    12    1
    11    29    36    1
    12    29    37    1
    13     7     9    1
    14     7    13    1
    15     8    10    1
    16     8    14    1
    17    28    37    1
    18     4     5    1
    19    30    33    1
    20    30    38    1
    21    31    34    1
    22    31    39    1
    23    32    35    1
    24    32    40    1
    25    41    42    1
    26    41    43    1
    27    15    19    2
    28    16    22    2
    29    17    12    1
    30    17    19   ar
    31    17    20   ar
    32    18    19   ar
    33    18    22   ar
    34    18    23    1
    35     9    10    1
    36     9    11    1
    37    10    12    1
    38    11     5    1
    39    33    34    1
    40    33    35    1
    41    34    36    1
    42    35    37    1
    43    36    42    1
    44    20    21   ar
    45    21    22   ar
@<TRIPOS>MOLECULE
*****
 43 45 0 0 0
SMALL
GASTEIGER

@<TRIPOS>ATOM
      1 P          21.7925   72.3933   -5.5118 P.3     1  UNL1        0.2189
      2 O          21.0882   73.7990   -5.1305 O.co2   1  UNL1       -0.4371
      3 O          23.0553   72.5140   -6.3133 O.2     1  UNL1       -0.5170
      4 O          20.6037   71.5369   -6.1982 O.3     1  UNL1       -0.3112
      5 C          20.1518   71.9188   -7.4857 C.3     1  UNL1        0.1811
      6 O          18.8738   69.9214   -7.0975 O.3     1  UNL1       -0.3308
      7 O          18.0989   70.0793   -9.9898 O.3     1  UNL1       -0.3794
      8 O          15.8980   71.0810   -8.7293 O.3     1  UNL1       -0.3779
      9 C          18.3071   71.1346   -9.0527 C.3     1  UNL1        0.1713
     10 C          17.1472   71.2123   -8.0820 C.3     1  UNL1        0.1895
     11 C          19.4589   70.7316   -8.1404 C.3     1  UNL1        0.1764
     12 C          17.4438   70.0550   -7.1434 C.3     1  UNL1        0.2383
     13 H          17.3680   70.3140  -10.5837 H       1  UNL1        0.2105
     14 H          15.7557   71.8410   -9.3148 H       1  UNL1        0.2106
     15 O          16.2967   68.0703   -5.4933 O.2     1  UNL1       -0.2464
     16 O          15.5994   71.0668   -2.0617 O.2     1  UNL1       -0.2670
     17 N          16.9544   70.2887   -5.8140 N.ar    1  UNL1       -0.2551
     18 N          15.9506   69.5639   -3.7859 N.ar    1  UNL1       -0.2743
     19 C          16.3956   69.2237   -5.0698 C.ar    1  UNL1        0.3323
     20 C          17.0314   71.5624   -5.2612 C.ar    1  UNL1        0.0869
     21 C          16.6014   71.8706   -4.0359 C.ar    1  UNL1        0.0795
     22 C          16.0042   70.8151   -3.1925 C.ar    1  UNL1        0.2626
     23 H          15.5572   68.8380   -3.2491 H       1  UNL1        0.1734
     24 O          21.9739   71.6760   -4.0746 O.3     1  UNL1       -0.2703
     25 P          23.1328   71.8170   -2.9566 P.3     1  UNL1        0.2208
     26 O          23.6841   73.3213   -3.1812 O.co2   1  UNL1       -0.4371
     27 O          24.1896   70.7530   -3.0282 O.2     1  UNL1       -0.5170
     28 O          22.3401   71.8788   -1.5520 O.3     1  UNL1       -0.2858
     29 O          23.9424   72.6000    0.0383 O.3     1  UNL1       -0.3258
     30 O          20.6698   72.2150    2.5269 O.3     1  UNL1       -0.3794
     31 O          21.6169   74.8338    1.8248 O.3     1  UNL1       -0.3794
     32 O          21.1056   70.2929    0.4066 O.3     1  UNL1       -0.3775
     33 C          21.3490   72.5146    1.3045 C.3     1  UNL1        0.1715
     34 C          22.3513   73.6384    1.5758 C.3     1  UNL1        0.1694
     35 C          22.0682   71.2600    0.8125 C.3     1  UNL1        0.1967
     36 C          23.3011   73.8327    0.3861 C.3     1  UNL1        0.1761
     37 C          23.0244   71.5723   -0.3399 C.3     1  UNL1        0.2704
     38 H          20.2107   73.0074    2.8444 H       1  UNL1        0.2105
     39 H          21.0207   74.6975    2.5779 H       1  UNL1        0.2105
     40 H          20.5065   70.1036    1.1449 H       1  UNL1        0.2106
     41 O          24.8317   75.4283   -0.5194 O.3     1  UNL1       -0.3794
     42 C          24.4071   74.8391    0.6958 C.3     1  UNL1        0.1693
     43 H          25.5354   76.0714   -0.3377 H       1  UNL1        0.2105
@<TRIPOS>UNITY_ATOM_ATTR
2 1
charge -1
26 1
charge -1
@<TRIPOS>BOND
     1    25    28    1
     2    25    24    1
     3    25    26    1
     4    25    27    2
     5     1     4    1
     6     1    24    1
     7     1     2    1
     8     1     3    2
     9     6    11    1
    10     6    12    1
    11    29    36    1
    12    29    37    1
    13     7     9    1
    14     7    13    1
    15     8    10    1
    16     8    14    1
    17    28    37    1
    18     4     5    1
    19    30    33    1
    20    30    38    1
    21    31    34    1
    22    31    39    1
    23    32    35    1
    24    32    40    1
    25    41    42    1
    26    41    43    1
    27    15    19    2
    28    16    22    2
    29    17    12    1
    30    17    19   ar
    31    17    20   ar
    32    18    19   ar
    33    18    22   ar
    34    18    23    1
    35     9    10    1
    36     9    11    1
    37    10    12    1
    38    11     5    1
    39    33    34    1
    40    33    35    1
    41    34    36    1
    42    35    37    1
    43    36    42    1
    44    20    21   ar
    45    21    22   ar
@<TRIPOS>MOLECULE
*****
 43 45 0 0 0
SMALL
GASTEIGER

@<TRIPOS>ATOM
      1 P          23.5062   72.2446   -3.3952 P.3     1  UNL1        0.2189
      2 O          24.0423   73.1021   -4.6580 O.co2   1  UNL1       -0.4371
      3 O          24.2702   70.9839   -3.1150 O.2     1  UNL1       -0.5170
      4 O          21.9273   72.0575   -3.6948 O.3     1  UNL1       -0.3112
      5 C          21.3329   72.8497   -4.7082 C.3     1  UNL1        0.1811
      6 O          20.5479   70.8003   -5.6867 O.3     1  UNL1       -0.3308
      7 O          20.8419   72.1716   -8.3370 O.3     1  UNL1       -0.3794
      8 O          18.1600   72.3427   -7.8734 O.3     1  UNL1       -0.3779
      9 C          20.4293   72.7116   -7.0826 C.3     1  UNL1        0.1713
     10 C          19.0202   72.2636   -6.7551 C.3     1  UNL1        0.1895
     11 C          21.2419   72.0305   -5.9884 C.3     1  UNL1        0.1764
     12 C          19.2440   70.8348   -6.2896 C.3     1  UNL1        0.2383
     13 H          20.3369   72.5916   -9.0514 H       1  UNL1        0.2105
     14 H          18.0492   73.2711   -8.1313 H       1  UNL1        0.2106
     15 O          16.7759   69.6195   -6.9293 O.2     1  UNL1       -0.2464
     16 O          15.5886   69.2700   -2.4898 O.2     1  UNL1       -0.2670
     17 N          18.2709   70.4157   -5.3207 N.ar    1  UNL1       -0.2551
     18 N          16.1868   69.4463   -4.7183 N.ar    1  UNL1       -0.2743
     19 C          17.0628   69.8164   -5.7467 C.ar    1  UNL1        0.3323
     20 C          18.5192   70.6000   -3.9648 C.ar    1  UNL1        0.0869
     21 C          17.6729   70.2427   -2.9966 C.ar    1  UNL1        0.0795
     22 C          16.3878   69.6097   -3.3568 C.ar    1  UNL1        0.2626
     23 H          15.3385   69.0271   -4.9913 H       1  UNL1        0.1734
     24 O          23.5222   73.3226   -2.1908 O.3     1  UNL1       -0.2703
     25 P          22.7813   73.3203   -0.7541 P.3     1  UNL1        0.2208
     26 O          22.4648   71.7538   -0.5024 O.co2   1  UNL1       -0.4371
     27 O          21.5778   74.2148   -0.6810 O.2     1  UNL1       -0.5170
     28 O          23.9449   73.6765    0.3062 O.3     1  UNL1       -0.2858
     29 O          24.0289   73.1893    2.6240 O.3     1  UNL1       -0.3258
     30 O          21.6725   70.0378    1.3723 O.3     1  UNL1       -0.3794
     31 O          20.4876   72.1924    2.8562 O.3     1  UNL1       -0.3794
     32 O          23.8813   70.9311   -0.2717 O.3     1  UNL1       -0.3775
     33 C          22.1677   71.3795    1.3604 C.3     1  UNL1        0.1715
     34 C          21.8943   72.0037    2.7302 C.3     1  UNL1        0.1694
     35 C          23.6672   71.3555    1.0702 C.3     1  UNL1        0.1967
     36 C          22.6290   73.3420    2.8858 C.3     1  UNL1        0.1761
     37 C          24.3094   72.7244    1.3022 C.3     1  UNL1        0.2704
     38 H          20.7207   70.0460    1.5556 H       1  UNL1        0.2105
     39 H          20.0355   71.3399    2.7555 H       1  UNL1        0.2105
     40 H          23.4704   70.0634   -0.4057 H       1  UNL1        0.2106
     41 O          22.0732   72.8649    5.1601 O.3     1  UNL1       -0.3794
     42 C          22.4984   73.9053    4.2992 C.3     1  UNL1        0.1693
     43 H          21.9860   73.2087    6.0633 H       1  UNL1        0.2105
@<TRIPOS>UNITY_ATOM_ATTR
2 1
charge -1
26 1
charge -1
@<TRIPOS>BOND
     1    25    28    1
     2    25    24    1
     3    25    26    1
     4    25    27    2
     5     1     4    1
     6     1    24    1
     7     1     2    1
     8     1     3    2
     9     6    11    1
    10     6    12    1
    11    29    36    1
    12    29    37    1
    13     7     9    1
    14     7    13    1
    15     8    10    1
    16     8    14    1
    17    28    37    1
    18     4     5    1
    19    30    33    1
    20    30    38    1
    21    31    34    1
    22    31    39    1
    23    32    35    1
    24    32    40    1
    25    41    42    1
    26    41    43    1
    27    15    19    2
    28    16    22    2
    29    17    12    1
    30    17    19   ar
    31    17    20   ar
    32    18    19   ar
    33    18    22   ar
    34    18    23    1
    35     9    10    1
    36     9    11    1
    37    10    12    1
    38    11     5    1
    39    33    34    1
    40    33    35    1
    41    34    36    1
    42    35    37    1
    43    36    42    1
    44    20    21   ar
    45    21    22   ar
@<TRIPOS>MOLECULE
*****
 43 45 0 0 0
SMALL
GASTEIGER

@<TRIPOS>ATOM
      1 P          21.5468   73.1228   -3.7589 P.3     1  UNL1        0.2189
      2 O          21.4487   74.7039   -4.0876 O.co2   1  UNL1       -0.4371
      3 O          22.1282   72.2820   -4.8574 O.2     1  UNL1       -0.5170
      4 O          20.0487   72.7297   -3.2911 O.3     1  UNL1       -0.3112
      5 C          19.5315   71.4663   -3.6707 C.3     1  UNL1        0.1811
      6 O          17.6565   71.9620   -5.0892 O.3     1  UNL1       -0.3308
      7 O          15.9872   70.4857   -3.0830 O.3     1  UNL1       -0.3794
      8 O          16.3050   68.6400   -5.0652 O.3     1  UNL1       -0.3779
      9 C          17.3191   70.2191   -3.5194 C.3     1  UNL1        0.1713
     10 C          17.3069   69.6247   -4.9123 C.3     1  UNL1        0.1895
     11 C          18.0136   71.5554   -3.7500 C.3     1  UNL1        0.1764
     12 C          17.0590   70.8499   -5.7757 C.3     1  UNL1        0.2383
     13 H          15.5237   69.6470   -2.9289 H       1  UNL1        0.2105
     14 H          16.5076   67.8812   -4.4960 H       1  UNL1        0.2106
     15 O          15.5973   70.6437   -8.1837 O.2     1  UNL1       -0.2464
     16 O          19.4434   70.4002  -10.7114 O.2     1  UNL1       -0.2670
     17 N          17.6529   70.7319   -7.0775 N.ar    1  UNL1       -0.2551
     18 N          17.5135   70.5228   -9.4404 N.ar    1  UNL1       -0.2743
     19 C          16.8293   70.6333   -8.2231 C.ar    1  UNL1        0.3323
     20 C          19.0372   70.7151   -7.2087 C.ar    1  UNL1        0.0869
     21 C          19.6741   70.6078   -8.3766 C.ar    1  UNL1        0.0795
     22 C          18.8872   70.5002   -9.6221 C.ar    1  UNL1        0.2626
     23 H          16.9604   70.4525  -10.2521 H       1  UNL1        0.1734
     24 O          22.3802   73.0905   -2.3742 O.3     1  UNL1       -0.2703
     25 P          22.0420   73.7036   -0.9172 P.3     1  UNL1        0.2208
     26 O          21.3441   72.4643   -0.1461 O.co2   1  UNL1       -0.4371
     27 O          21.2144   74.9556   -0.9534 O.2     1  UNL1       -0.5170
     28 O          23.4788   73.8720   -0.2014 O.3     1  UNL1       -0.2858
     29 O          24.3275   72.9969    1.8309 O.3     1  UNL1       -0.3258
     30 O          21.4065   70.1796    1.0682 O.3     1  UNL1       -0.3794
     31 O          21.0188   72.0883    3.1787 O.3     1  UNL1       -0.3794
     32 O          22.9680   71.2675   -1.1130 O.3     1  UNL1       -0.3775
     33 C          21.9853   71.4874    1.0750 C.3     1  UNL1        0.1715
     34 C          22.2683   71.8790    2.5266 C.3     1  UNL1        0.1694
     35 C          23.2784   71.4652    0.2621 C.3     1  UNL1        0.1967
     36 C          23.1288   73.1476    2.6004 C.3     1  UNL1        0.1761
     37 C          24.0823   72.7539    0.4443 C.3     1  UNL1        0.2704
     38 H          20.5848   70.1869    1.5822 H       1  UNL1        0.2105
     39 H          20.4850   71.2801    3.1244 H       1  UNL1        0.2105
     40 H          22.4595   70.4485   -1.2151 H       1  UNL1        0.2106
     41 O          22.4639   74.0733    4.7004 O.3     1  UNL1       -0.3794
     42 C          23.5547   73.4673    4.0317 C.3     1  UNL1        0.1693
     43 H          22.7204   74.2820    5.6128 H       1  UNL1        0.2105
@<TRIPOS>UNITY_ATOM_ATTR
2 1
charge -1
26 1
charge -1
@<TRIPOS>BOND
     1    25    28    1
     2    25    24    1
     3    25    26    1
     4    25    27    2
     5     1     4    1
     6     1    24    1
     7     1     2    1
     8     1     3    2
     9     6    11    1
    10     6    12    1
    11    29    36    1
    12    29    37    1
    13     7     9    1
    14     7    13    1
    15     8    10    1
    16     8    14    1
    17    28    37    1
    18     4     5    1
    19    30    33    1
    20    30    38    1
    21    31    34    1
    22    31    39    1
    23    32    35    1
    24    32    40    1
    25    41    42    1
    26    41    43    1
    27    15    19    2
    28    16    22    2
    29    17    12    1
    30    17    19   ar
    31    17    20   ar
    32    18    19   ar
    33    18    22   ar
    34    18    23    1
    35     9    10    1
    36     9    11    1
    37    10    12    1
    38    11     5    1
    39    33    34    1
    40    33    35    1
    41    34    36    1
    42    35    37    1
    43    36    42    1
    44    20    21   ar
    45    21    22   ar
@<TRIPOS>MOLECULE
*****
 43 45 0 0 0
SMALL
GASTEIGER

@<TRIPOS>ATOM
      1 P          22.3983   71.2658    0.5340 P.3     1  UNL1        0.2189
      2 O          21.5761   72.6066    0.1551 O.co2   1  UNL1       -0.4371
      3 O          21.5513   70.0987    0.9485 O.2     1  UNL1       -0.5170
      4 O          23.4820   71.7699    1.6246 O.3     1  UNL1       -0.3112
      5 C          24.2676   72.9092    1.3204 C.3     1  UNL1        0.1811
      6 O          24.7913   73.5358    3.5802 O.3     1  UNL1       -0.3308
      7 O          23.9350   76.3050    2.8127 O.3     1  UNL1       -0.3794
      8 O          26.6549   76.4743    2.7112 O.3     1  UNL1       -0.3779
      9 C          24.6216   75.3250    2.0357 C.3     1  UNL1        0.1713
     10 C          26.0626   75.2110    2.4875 C.3     1  UNL1        0.1895
     11 C          24.0629   73.9568    2.4061 C.3     1  UNL1        0.1764
     12 C          25.9298   74.3937    3.7613 C.3     1  UNL1        0.2383
     13 H          24.2746   77.1873    2.5932 H       1  UNL1        0.2105
     14 H          26.7173   76.9556    1.8715 H       1  UNL1        0.2106
     15 O          27.5879   74.6503    6.0334 O.2     1  UNL1       -0.2464
     16 O          30.3467   71.2345    4.6326 O.2     1  UNL1       -0.2670
     17 N          27.0879   73.5842    4.0159 N.ar    1  UNL1       -0.2551
     18 N          28.9601   72.9492    5.3342 N.ar    1  UNL1       -0.2743
     19 C          27.8531   73.7947    5.1866 C.ar    1  UNL1        0.3323
     20 C          27.4542   72.5944    3.1103 C.ar    1  UNL1        0.0869
     21 C          28.5135   71.7974    3.2651 C.ar    1  UNL1        0.0795
     22 C          29.3659   71.9519    4.4616 C.ar    1  UNL1        0.2626
     23 H          29.5083   73.0778    6.1421 H       1  UNL1        0.1734
     24 O          23.3004   71.0085   -0.7825 O.3     1  UNL1       -0.2703
     25 P          23.2351   71.6636   -2.2588 P.3     1  UNL1        0.2208
     26 O          24.3747   70.8551   -3.0743 O.co2   1  UNL1       -0.4371
     27 O          23.4009   73.1556   -2.2777 O.2     1  UNL1       -0.5170
     28 O          21.8403   71.1378   -2.8777 O.3     1  UNL1       -0.2858
     29 O          21.3737   72.7467   -4.5541 O.3     1  UNL1       -0.3258
     30 O          18.2261   70.1603   -5.2276 O.3     1  UNL1       -0.3794
     31 O          20.4016   70.2640   -7.0996 O.3     1  UNL1       -0.3794
     32 O          19.0903   70.7087   -2.5198 O.3     1  UNL1       -0.3775
     33 C          19.5644   70.5196   -4.8737 C.3     1  UNL1        0.1715
     34 C          20.2028   71.2285   -6.0698 C.3     1  UNL1        0.1694
     35 C          19.5282   71.4434   -3.6577 C.3     1  UNL1        0.1967
     36 C          21.5378   71.8779   -5.6810 C.3     1  UNL1        0.1761
     37 C          20.8951   72.0749   -3.3873 C.3     1  UNL1        0.2704
     38 H          18.2420   69.5733   -5.9987 H       1  UNL1        0.2105
     39 H          19.5511   69.8611   -7.3355 H       1  UNL1        0.2105
     40 H          18.2239   70.3143   -2.7036 H       1  UNL1        0.2106
     41 O          21.0783   73.0048   -7.7372 O.3     1  UNL1       -0.3794
     42 C          22.1147   72.7224   -6.8150 C.3     1  UNL1        0.1693
     43 H          21.4308   73.5421   -8.4644 H       1  UNL1        0.2105
@<TRIPOS>UNITY_ATOM_ATTR
2 1
charge -1
26 1
charge -1
@<TRIPOS>BOND
     1    25    28    1
     2    25    24    1
     3    25    26    1
     4    25    27    2
     5     1     4    1
     6     1    24    1
     7     1     2    1
     8     1     3    2
     9     6    11    1
    10     6    12    1
    11    29    36    1
    12    29    37    1
    13     7     9    1
    14     7    13    1
    15     8    10    1
    16     8    14    1
    17    28    37    1
    18     4     5    1
    19    30    33    1
    20    30    38    1
    21    31    34    1
    22    31    39    1
    23    32    35    1
    24    32    40    1
    25    41    42    1
    26    41    43    1
    27    15    19    2
    28    16    22    2
    29    17    12    1
    30    17    19   ar
    31    17    20   ar
    32    18    19   ar
    33    18    22   ar
    34    18    23    1
    35     9    10    1
    36     9    11    1
    37    10    12    1
    38    11     5    1
    39    33    34    1
    40    33    35    1
    41    34    36    1
    42    35    37    1
    43    36    42    1
    44    20    21   ar
    45    21    22   ar
@<TRIPOS>MOLECULE
*****
 43 45 0 0 0
SMALL
GASTEIGER

@<TRIPOS>ATOM
      1 P          21.8836   71.5950   -0.3420 P.3     1  UNL1        0.2189
      2 O          21.0231   70.5061    0.4894 O.co2   1  UNL1       -0.4371
      3 O          23.0980   71.0488   -1.0337 O.2     1  UNL1       -0.5170
      4 O          22.1572   72.7749    0.7307 O.3     1  UNL1       -0.3112
      5 C          22.8368   72.4527    1.9316 C.3     1  UNL1        0.1811
      6 O          22.5423   72.3010    4.3115 O.3     1  UNL1       -0.3308
      7 O          19.6982   73.1155    3.8232 O.3     1  UNL1       -0.3794
      8 O          20.8475   75.4424    4.6606 O.3     1  UNL1       -0.3779
      9 C          20.8849   73.5359    3.1522 C.3     1  UNL1        0.1713
     10 C          21.6742   74.4878    4.0267 C.3     1  UNL1        0.1895
     11 C          21.8215   72.3377    3.0603 C.3     1  UNL1        0.1764
     12 C          22.3324   73.5376    5.0126 C.3     1  UNL1        0.2383
     13 H          19.0844   73.8640    3.8936 H       1  UNL1        0.2105
     14 H          20.4521   76.0230    3.9917 H       1  UNL1        0.2106
     15 O          22.9656   73.9639    7.7320 O.2     1  UNL1       -0.2464
     16 O          27.2159   75.4193    6.7035 O.2     1  UNL1       -0.2670
     17 N          23.5972   74.0270    5.4839 N.ar    1  UNL1       -0.2551
     18 N          25.0815   74.6881    7.2177 N.ar    1  UNL1       -0.2743
     19 C          23.8128   74.2068    6.8701 C.ar    1  UNL1        0.3323
     20 C          24.6078   74.3227    4.5755 C.ar    1  UNL1        0.0869
     21 C          25.8117   74.7821    4.9232 C.ar    1  UNL1        0.0795
     22 C          26.1184   74.9978    6.3519 C.ar    1  UNL1        0.2626
     23 H          25.2544   74.8215    8.1780 H       1  UNL1        0.1734
     24 O          20.7842   72.2496   -1.3298 O.3     1  UNL1       -0.2703
     25 P          19.5098   71.5977   -2.0806 P.3     1  UNL1        0.2208
     26 O          18.2756   72.5183   -1.5840 O.co2   1  UNL1       -0.4371
     27 O          19.3295   70.1294   -1.8245 O.2     1  UNL1       -0.5170
     28 O          19.7085   71.9861   -3.6346 O.3     1  UNL1       -0.2858
     29 O          18.9337   70.2651   -5.0679 O.3     1  UNL1       -0.3258
     30 O          20.8113   72.6560   -7.8625 O.3     1  UNL1       -0.3794
     31 O          17.9423   72.5517   -7.7840 O.3     1  UNL1       -0.3794
     32 O          21.9875   72.3023   -5.2412 O.3     1  UNL1       -0.3775
     33 C          20.0567   72.3816   -6.6790 C.3     1  UNL1        0.1715
     34 C          18.7824   71.6381   -7.0843 C.3     1  UNL1        0.1694
     35 C          20.9010   71.5267   -5.7357 C.3     1  UNL1        0.1967
     36 C          18.0544   71.0762   -5.8557 C.3     1  UNL1        0.1761
     37 C          20.0699   70.9777   -4.5747 C.3     1  UNL1        0.2704
     38 H          20.2810   73.1989   -8.4655 H       1  UNL1        0.2105
     39 H          18.4140   72.8995   -8.5571 H       1  UNL1        0.2105
     40 H          22.5060   72.6438   -5.9858 H       1  UNL1        0.2106
     41 O          15.7669   71.0369   -6.5448 O.3     1  UNL1       -0.3794
     42 C          16.8676   70.1981   -6.2462 C.3     1  UNL1        0.1693
     43 H          15.0042   70.4916   -6.7953 H       1  UNL1        0.2105
@<TRIPOS>UNITY_ATOM_ATTR
2 1
charge -1
26 1
charge -1
@<TRIPOS>BOND
     1    25    28    1
     2    25    24    1
     3    25    26    1
     4    25    27    2
     5     1     4    1
     6     1    24    1
     7     1     2    1
     8     1     3    2
     9     6    11    1
    10     6    12    1
    11    29    36    1
    12    29    37    1
    13     7     9    1
    14     7    13    1
    15     8    10    1
    16     8    14    1
    17    28    37    1
    18     4     5    1
    19    30    33    1
    20    30    38    1
    21    31    34    1
    22    31    39    1
    23    32    35    1
    24    32    40    1
    25    41    42    1
    26    41    43    1
    27    15    19    2
    28    16    22    2
    29    17    12    1
    30    17    19   ar
    31    17    20   ar
    32    18    19   ar
    33    18    22   ar
    34    18    23    1
    35     9    10    1
    36     9    11    1
    37    10    12    1
    38    11     5    1
    39    33    34    1
    40    33    35    1
    41    34    36    1
    42    35    37    1
    43    36    42    1
    44    20    21   ar
    45    21    22   ar
@<TRIPOS>MOLECULE
*****
 43 45 0 0 0
SMALL
GASTEIGER

@<TRIPOS>ATOM
      1 P          23.1649   74.4122   -1.5308 P.3     1  UNL1        0.2189
      2 O          24.4350   74.4495   -0.5294 O.co2   1  UNL1       -0.4371
      3 O          23.2111   75.4100   -2.6505 O.2     1  UNL1       -0.5170
      4 O          21.8882   74.5232   -0.5431 O.3     1  UNL1       -0.3112
      5 C          22.1112   74.4952    0.8559 C.3     1  UNL1        0.1811
      6 O          22.6540   72.2149    1.3842 O.3     1  UNL1       -0.3308
      7 O          20.2136   72.2340    3.1263 O.3     1  UNL1       -0.3794
      8 O          22.2334   72.5618    4.9290 O.3     1  UNL1       -0.3779
      9 C          21.1504   73.2801    2.8742 C.3     1  UNL1        0.1713
     10 C          22.4483   73.0115    3.6068 C.3     1  UNL1        0.1895
     11 C          21.5819   73.1822    1.4162 C.3     1  UNL1        0.1764
     12 C          23.0936   71.9541    2.7272 C.3     1  UNL1        0.2383
     13 H          19.9233   72.2763    4.0514 H       1  UNL1        0.2105
     14 H          21.8214   73.2698    5.4485 H       1  UNL1        0.2106
     15 O          24.7912   69.7784    2.1250 O.2     1  UNL1       -0.2464
     16 O          28.5806   72.2795    2.9162 O.2     1  UNL1       -0.2670
     17 N          24.5277   72.0089    2.7674 N.ar    1  UNL1       -0.2551
     18 N          26.6767   71.0256    2.5193 N.ar    1  UNL1       -0.2743
     19 C          25.2876   70.8596    2.4480 C.ar    1  UNL1        0.3323
     20 C          25.1663   73.1928    3.1202 C.ar    1  UNL1        0.0869
     21 C          26.4919   73.3343    3.1847 C.ar    1  UNL1        0.0795
     22 C          27.3585   72.1813    2.8660 C.ar    1  UNL1        0.2626
     23 H          27.2264   70.2381    2.3013 H       1  UNL1        0.1734
     24 O          23.1227   72.8681   -2.0070 O.3     1  UNL1       -0.2703
     25 P          23.5422   72.1770   -3.4068 P.3     1  UNL1        0.2208
     26 O          24.1863   70.7663   -2.9458 O.co2   1  UNL1       -0.4371
     27 O          24.4435   73.0189   -4.2629 O.2     1  UNL1       -0.5170
     28 O          22.1411   71.7779   -4.1015 O.3     1  UNL1       -0.2858
     29 O          21.2784   72.4835   -6.1930 O.3     1  UNL1       -0.3258
     30 O          17.7390   72.1796   -4.0880 O.3     1  UNL1       -0.3794
     31 O          18.3646   70.2275   -6.0994 O.3     1  UNL1       -0.3794
     32 O          20.1127   73.1992   -2.7821 O.3     1  UNL1       -0.3775
     33 C          19.0720   71.8141   -4.4554 C.3     1  UNL1        0.1715
     34 C          19.0774   71.4511   -5.9416 C.3     1  UNL1        0.1694
     35 C          20.0050   72.9934   -4.1865 C.3     1  UNL1        0.1967
     36 C          20.5104   71.3069   -6.4714 C.3     1  UNL1        0.1761
     37 C          21.3894   72.7689   -4.7973 C.3     1  UNL1        0.2704
     38 H          17.1416   71.4350   -4.2558 H       1  UNL1        0.2105
     39 H          17.4615   70.3319   -5.7606 H       1  UNL1        0.2105
     40 H          19.2298   73.3403   -2.4074 H       1  UNL1        0.2106
     41 O          21.2923   72.1520   -8.5651 O.3     1  UNL1       -0.3794
     42 C          20.5429   71.1006   -7.9842 C.3     1  UNL1        0.1693
     43 H          21.3217   72.0336   -9.5278 H       1  UNL1        0.2105
@<TRIPOS>UNITY_ATOM_ATTR
2 1
charge -1
26 1
charge -1
@<TRIPOS>BOND
     1    25    28    1
     2    25    24    1
     3    25    26    1
     4    25    27    2
     5     1     4    1
     6     1    24    1
     7     1     2    1
     8     1     3    2
     9     6    11    1
    10     6    12    1
    11    29    36    1
    12    29    37    1
    13     7     9    1
    14     7    13    1
    15     8    10    1
    16     8    14    1
    17    28    37    1
    18     4     5    1
    19    30    33    1
    20    30    38    1
    21    31    34    1
    22    31    39    1
    23    32    35    1
    24    32    40    1
    25    41    42    1
    26    41    43    1
    27    15    19    2
    28    16    22    2
    29    17    12    1
    30    17    19   ar
    31    17    20   ar
    32    18    19   ar
    33    18    22   ar
    34    18    23    1
    35     9    10    1
    36     9    11    1
    37    10    12    1
    38    11     5    1
    39    33    34    1
    40    33    35    1
    41    34    36    1
    42    35    37    1
    43    36    42    1
    44    20    21   ar
    45    21    22   ar
@<TRIPOS>MOLECULE
*****
 43 45 0 0 0
SMALL
GASTEIGER

@<TRIPOS>ATOM
      1 P          22.0619   72.3311   -1.8100 P.3     1  UNL1        0.2189
      2 O          23.1478   73.4810   -2.1509 O.co2   1  UNL1       -0.4371
      3 O          22.3294   70.9984   -2.4454 O.2     1  UNL1       -0.5170
      4 O          20.6431   73.0145   -2.1813 O.3     1  UNL1       -0.3112
      5 C          20.0589   72.7195   -3.4381 C.3     1  UNL1        0.1811
      6 O          17.9741   72.1399   -4.4828 O.3     1  UNL1       -0.3308
      7 O          17.4490   70.4450   -2.0657 O.3     1  UNL1       -0.3794
      8 O          18.2606   68.6105   -3.9130 O.3     1  UNL1       -0.3779
      9 C          18.6806   70.6982   -2.7397 C.3     1  UNL1        0.1713
     10 C          18.7304   69.9364   -4.0477 C.3     1  UNL1        0.1895
     11 C          18.6664   72.1457   -3.2151 C.3     1  UNL1        0.1764
     12 C          17.8403   70.7843   -4.9403 C.3     1  UNL1        0.2383
     13 H          17.4348   69.5265   -1.7525 H       1  UNL1        0.2105
     14 H          18.8603   68.1118   -3.3364 H       1  UNL1        0.2106
     15 O          20.5114   70.6158   -5.8428 O.2     1  UNL1       -0.2464
     16 O          19.2060   70.5364  -10.2622 O.2     1  UNL1       -0.2670
     17 N          18.2272   70.7179   -6.3213 N.ar    1  UNL1       -0.2551
     18 N          19.8592   70.5762   -8.0426 N.ar    1  UNL1       -0.2743
     19 C          19.5959   70.6364   -6.6682 C.ar    1  UNL1        0.3323
     20 C          17.2544   70.7335   -7.3150 C.ar    1  UNL1        0.0869
     21 C          17.5221   70.6767   -8.6213 C.ar    1  UNL1        0.0795
     22 C          18.9273   70.5900   -9.0683 C.ar    1  UNL1        0.2626
     23 H          20.8059   70.5194   -8.3079 H       1  UNL1        0.1734
     24 O          22.0453   72.3146   -0.1937 O.3     1  UNL1       -0.2703
     25 P          22.6270   71.2384    0.8629 P.3     1  UNL1        0.2208
     26 O          24.0689   70.8494    0.2406 O.co2   1  UNL1       -0.4371
     27 O          21.7219   70.0661    1.1085 O.2     1  UNL1       -0.5170
     28 O          22.9719   72.1047    2.1803 O.3     1  UNL1       -0.2858
     29 O          22.2115   73.9623    3.4404 O.3     1  UNL1       -0.3258
     30 O          26.0320   75.2698    2.5774 O.3     1  UNL1       -0.3794
     31 O          25.3905   74.4287    5.2474 O.3     1  UNL1       -0.3794
     32 O          24.5180   73.8173    0.5830 O.3     1  UNL1       -0.3775
     33 C          25.0246   74.3030    2.8871 C.3     1  UNL1        0.1715
     34 C          24.4108   74.6668    4.2405 C.3     1  UNL1        0.1694
     35 C          23.9604   74.3226    1.7914 C.3     1  UNL1        0.1967
     36 C          23.1485   73.8389    4.5167 C.3     1  UNL1        0.1761
     37 C          22.7271   73.5087    2.1873 C.3     1  UNL1        0.2704
     38 H          26.7111   75.2621    3.2690 H       1  UNL1        0.2105
     39 H          26.1825   74.9570    5.0610 H       1  UNL1        0.2105
     40 H          25.2977   74.3411    0.3430 H       1  UNL1        0.2106
     41 O          21.1921   73.6168    5.8702 O.3     1  UNL1       -0.3794
     42 C          22.4322   74.2946    5.7861 C.3     1  UNL1        0.1693
     43 H          20.7252   73.8967    6.6736 H       1  UNL1        0.2105
@<TRIPOS>UNITY_ATOM_ATTR
2 1
charge -1
26 1
charge -1
@<TRIPOS>BOND
     1    25    28    1
     2    25    24    1
     3    25    26    1
     4    25    27    2
     5     1     4    1
     6     1    24    1
     7     1     2    1
     8     1     3    2
     9     6    11    1
    10     6    12    1
    11    29    36    1
    12    29    37    1
    13     7     9    1
    14     7    13    1
    15     8    10    1
    16     8    14    1
    17    28    37    1
    18     4     5    1
    19    30    33    1
    20    30    38    1
    21    31    34    1
    22    31    39    1
    23    32    35    1
    24    32    40    1
    25    41    42    1
    26    41    43    1
    27    15    19    2
    28    16    22    2
    29    17    12    1
    30    17    19   ar
    31    17    20   ar
    32    18    19   ar
    33    18    22   ar
    34    18    23    1
    35     9    10    1
    36     9    11    1
    37    10    12    1
    38    11     5    1
    39    33    34    1
    40    33    35    1
    41    34    36    1
    42    35    37    1
    43    36    42    1
    44    20    21   ar
    45    21    22   ar
@<TRIPOS>MOLECULE
*****
 43 45 0 0 0
SMALL
GASTEIGER

@<TRIPOS>ATOM
      1 P          22.6694   72.8407   -4.0757 P.3     1  UNL1        0.2189
      2 O          22.3666   73.1413   -5.6363 O.co2   1  UNL1       -0.4371
      3 O          23.7376   71.8177   -3.8230 O.2     1  UNL1       -0.5170
      4 O          21.2134   72.5041   -3.4554 O.3     1  UNL1       -0.3112
      5 C          20.5643   71.3121   -3.8622 C.3     1  UNL1        0.1811
      6 O          18.4997   71.9126   -4.9348 O.3     1  UNL1       -0.3308
      7 O          17.1301   70.5052   -2.6689 O.3     1  UNL1       -0.3794
      8 O          17.0061   68.6622   -4.6751 O.3     1  UNL1       -0.3779
      9 C          18.3511   70.1759   -3.3293 C.3     1  UNL1        0.1713
     10 C          18.0680   69.5943   -4.6987 C.3     1  UNL1        0.1895
     11 C          19.0621   71.4777   -3.6775 C.3     1  UNL1        0.1764
     12 C          17.7369   70.8374   -5.5067 C.3     1  UNL1        0.2383
     13 H          16.6584   69.6895   -2.4363 H       1  UNL1        0.2105
     14 H          17.2654   67.8897   -4.1491 H       1  UNL1        0.2106
     15 O          15.9052   70.2221   -7.5669 O.2     1  UNL1       -0.2464
     16 O          19.2039   70.3356  -10.7836 O.2     1  UNL1       -0.2670
     17 N          18.0898   70.7005   -6.8917 N.ar    1  UNL1       -0.2551
     18 N          17.5492   70.2793   -9.1669 N.ar    1  UNL1       -0.2743
     19 C          17.0942   70.3887   -7.8467 C.ar    1  UNL1        0.3323
     20 C          19.4104   70.8753   -7.2908 C.ar    1  UNL1        0.0869
     21 C          19.8282   70.7663   -8.5537 C.ar    1  UNL1        0.0795
     22 C          18.8510   70.4427   -9.6132 C.ar    1  UNL1        0.2626
     23 H          16.8733   70.0623   -9.8495 H       1  UNL1        0.1734
     24 O          22.9885   74.3083   -3.4781 O.3     1  UNL1       -0.2703
     25 P          24.2561   74.8611   -2.6410 P.3     1  UNL1        0.2208
     26 O          23.7422   76.2936   -2.0923 O.co2   1  UNL1       -0.4371
     27 O          25.5337   74.9211   -3.4272 O.2     1  UNL1       -0.5170
     28 O          24.3209   73.9218   -1.3301 O.3     1  UNL1       -0.2858
     29 O          22.3151   73.2565   -0.2574 O.3     1  UNL1       -0.3258
     30 O          24.9520   72.7010    2.8713 O.3     1  UNL1       -0.3794
     31 O          23.8480   70.4170    1.5249 O.3     1  UNL1       -0.3794
     32 O          25.2755   74.9633    1.0945 O.3     1  UNL1       -0.3775
     33 C          24.5369   72.7074    1.5027 C.3     1  UNL1        0.1715
     34 C          23.3576   71.7440    1.3548 C.3     1  UNL1        0.1694
     35 C          24.1247   74.1257    1.1128 C.3     1  UNL1        0.1967
     36 C          22.6882   71.8944   -0.0180 C.3     1  UNL1        0.1761
     37 C          23.4247   74.1567   -0.2471 C.3     1  UNL1        0.2704
     38 H          25.2156   71.8034    3.1251 H       1  UNL1        0.2105
     39 H          24.2687   70.3356    2.3953 H       1  UNL1        0.2105
     40 H          25.7095   74.9353    1.9610 H       1  UNL1        0.2106
     41 O          21.3922   70.1318    0.9425 O.3     1  UNL1       -0.3794
     42 C          21.4158   71.0573   -0.1286 C.3     1  UNL1        0.1693
     43 H          20.5876   69.5923    0.8852 H       1  UNL1        0.2105
@<TRIPOS>UNITY_ATOM_ATTR
2 1
charge -1
26 1
charge -1
@<TRIPOS>BOND
     1    25    28    1
     2    25    24    1
     3    25    26    1
     4    25    27    2
     5     1     4    1
     6     1    24    1
     7     1     2    1
     8     1     3    2
     9     6    11    1
    10     6    12    1
    11    29    36    1
    12    29    37    1
    13     7     9    1
    14     7    13    1
    15     8    10    1
    16     8    14    1
    17    28    37    1
    18     4     5    1
    19    30    33    1
    20    30    38    1
    21    31    34    1
    22    31    39    1
    23    32    35    1
    24    32    40    1
    25    41    42    1
    26    41    43    1
    27    15    19    2
    28    16    22    2
    29    17    12    1
    30    17    19   ar
    31    17    20   ar
    32    18    19   ar
    33    18    22   ar
    34    18    23    1
    35     9    10    1
    36     9    11    1
    37    10    12    1
    38    11     5    1
    39    33    34    1
    40    33    35    1
    41    34    36    1
    42    35    37    1
    43    36    42    1
    44    20    21   ar
    45    21    22   ar
@<TRIPOS>MOLECULE
*****
 43 45 0 0 0
SMALL
GASTEIGER

@<TRIPOS>ATOM
      1 P          19.4641   71.9080   -2.0089 P.3     1  UNL1        0.2189
      2 O          18.0264   72.5924   -1.7222 O.co2   1  UNL1       -0.4371
      3 O          19.7073   70.6170   -1.2839 O.2     1  UNL1       -0.5170
      4 O          20.5247   73.0926   -1.7095 O.3     1  UNL1       -0.3112
      5 C          21.1072   73.1686   -0.4200 C.3     1  UNL1        0.1811
      6 O          23.2599   73.4854    0.5994 O.3     1  UNL1       -0.3308
      7 O          24.1912   71.1929   -1.0941 O.3     1  UNL1       -0.3794
      8 O          23.8159   70.0203    1.3392 O.3     1  UNL1       -0.3779
      9 C          22.9283   71.3923   -0.4611 C.3     1  UNL1        0.1713
     10 C          23.0465   71.1649    1.0315 C.3     1  UNL1        0.1895
     11 C          22.5976   72.8780   -0.5314 C.3     1  UNL1        0.1764
     12 C          23.7041   72.4535    1.4954 C.3     1  UNL1        0.2383
     13 H          24.4236   70.2512   -1.0620 H       1  UNL1        0.2105
     14 H          23.3556   69.2269    1.0241 H       1  UNL1        0.2106
     15 O          21.2616   71.7296    2.7152 O.2     1  UNL1       -0.2464
     16 O          22.3783   73.8674    6.6425 O.2     1  UNL1       -0.2670
     17 N          23.3307   72.8073    2.8358 N.ar    1  UNL1       -0.2551
     18 N          21.8197   72.7945    4.6697 N.ar    1  UNL1       -0.2743
     19 C          22.0805   72.3947    3.3528 C.ar    1  UNL1        0.3323
     20 C          24.1999   73.5548    3.6230 C.ar    1  UNL1        0.0869
     21 C          23.9357   73.9290    4.8765 C.ar    1  UNL1        0.0795
     22 C          22.6507   73.5388    5.4920 C.ar    1  UNL1        0.2626
     23 H          20.9545   72.5188    5.0509 H       1  UNL1        0.1734
     24 O          19.4958   71.7907   -3.6208 O.3     1  UNL1       -0.2703
     25 P          20.6022   71.1623   -4.6178 P.3     1  UNL1        0.2208
     26 O          20.5757   69.5858   -4.2552 O.co2   1  UNL1       -0.4371
     27 O          21.9576   71.7992   -4.5128 O.2     1  UNL1       -0.5170
     28 O          19.9314   71.2550   -6.0829 O.3     1  UNL1       -0.2858
     29 O          17.6168   70.7460   -6.0573 O.3     1  UNL1       -0.3258
     30 O          18.2474   70.7458  -10.1381 O.3     1  UNL1       -0.3794
     31 O          16.7960   72.9083   -8.9278 O.3     1  UNL1       -0.3794
     32 O          20.2606   69.6567   -8.3659 O.3     1  UNL1       -0.3775
     33 C          18.4432   71.1797   -8.7895 C.3     1  UNL1        0.1715
     34 C          17.1059   71.6928   -8.2519 C.3     1  UNL1        0.1694
     35 C          18.9425   70.0024   -7.9539 C.3     1  UNL1        0.1967
     36 C          17.1708   71.9257   -6.7364 C.3     1  UNL1        0.1761
     37 C          18.9213   70.3221   -6.4581 C.3     1  UNL1        0.2704
     38 H          17.9309   71.4888  -10.6741 H       1  UNL1        0.2105
     39 H          16.7585   72.7476   -9.8838 H       1  UNL1        0.2105
     40 H          20.2606   69.4563   -9.3144 H       1  UNL1        0.2106
     41 O          15.5805   71.4863   -5.0082 O.3     1  UNL1       -0.3794
     42 C          15.8058   72.2863   -6.1542 C.3     1  UNL1        0.1693
     43 H          14.7154   71.7052   -4.6269 H       1  UNL1        0.2105
@<TRIPOS>UNITY_ATOM_ATTR
2 1
charge -1
26 1
charge -1
@<TRIPOS>BOND
     1    25    28    1
     2    25    24    1
     3    25    26    1
     4    25    27    2
     5     1     4    1
     6     1    24    1
     7     1     2    1
     8     1     3    2
     9     6    11    1
    10     6    12    1
    11    29    36    1
    12    29    37    1
    13     7     9    1
    14     7    13    1
    15     8    10    1
    16     8    14    1
    17    28    37    1
    18     4     5    1
    19    30    33    1
    20    30    38    1
    21    31    34    1
    22    31    39    1
    23    32    35    1
    24    32    40    1
    25    41    42    1
    26    41    43    1
    27    15    19    2
    28    16    22    2
    29    17    12    1
    30    17    19   ar
    31    17    20   ar
    32    18    19   ar
    33    18    22   ar
    34    18    23    1
    35     9    10    1
    36     9    11    1
    37    10    12    1
    38    11     5    1
    39    33    34    1
    40    33    35    1
    41    34    36    1
    42    35    37    1
    43    36    42    1
    44    20    21   ar
    45    21    22   ar
@<TRIPOS>MOLECULE
*****
 43 45 0 0 0
SMALL
GASTEIGER

@<TRIPOS>ATOM
      1 P          23.3774   72.2562   -3.4841 P.3     1  UNL1        0.2189
      2 O          23.9667   70.7772   -3.1963 O.co2   1  UNL1       -0.4371
      3 O          24.3756   73.2444   -4.0119 O.2     1  UNL1       -0.5170
      4 O          22.6529   72.6626   -2.0957 O.3     1  UNL1       -0.3112
      5 C          23.4400   72.7411   -0.9200 C.3     1  UNL1        0.1811
      6 O          24.4743   71.2399    0.6454 O.3     1  UNL1       -0.3308
      7 O          21.7171   70.1840    1.1684 O.3     1  UNL1       -0.3794
      8 O          22.1374   71.8308    3.3011 O.3     1  UNL1       -0.3779
      9 C          22.1338   71.5197    0.8897 C.3     1  UNL1        0.1713
     10 C          22.8215   72.1190    2.0987 C.3     1  UNL1        0.1895
     11 C          23.2703   71.4550   -0.1230 C.3     1  UNL1        0.1764
     12 C          24.1929   71.4684    2.0359 C.3     1  UNL1        0.2383
     13 H          20.9915   70.1997    1.8129 H       1  UNL1        0.2105
     14 H          21.2711   72.2668    3.2929 H       1  UNL1        0.2106
     15 O          26.8739   70.6624    2.4108 O.2     1  UNL1       -0.2464
     16 O          28.0517   74.7578    4.1665 O.2     1  UNL1       -0.2670
     17 N          25.2214   72.3039    2.5886 N.ar    1  UNL1       -0.2551
     18 N          27.4582   72.7023    3.2845 N.ar    1  UNL1       -0.2743
     19 C          26.5357   71.8025    2.7355 C.ar    1  UNL1        0.3323
     20 C          24.9224   73.6050    2.9780 C.ar    1  UNL1        0.0869
     21 C          25.8133   74.4500    3.5011 C.ar    1  UNL1        0.0795
     22 C          27.2092   74.0045    3.6881 C.ar    1  UNL1        0.2626
     23 H          28.3801   72.3748    3.3966 H       1  UNL1        0.1734
     24 O          22.1318   71.9652   -4.4724 O.3     1  UNL1       -0.2703
     25 P          21.5213   72.8301   -5.6940 P.3     1  UNL1        0.2208
     26 O          22.4107   72.3609   -6.9615 O.co2   1  UNL1       -0.4371
     27 O          21.5159   74.3124   -5.4561 O.2     1  UNL1       -0.5170
     28 O          20.0637   72.1899   -5.9594 O.3     1  UNL1       -0.2858
     29 O          19.1581   70.0722   -5.4009 O.3     1  UNL1       -0.3258
     30 O          17.4462   70.5601   -9.1268 O.3     1  UNL1       -0.3794
     31 O          15.8150   70.7966   -6.7749 O.3     1  UNL1       -0.3794
     32 O          20.1652   71.4373   -8.6610 O.3     1  UNL1       -0.3775
     33 C          17.9410   70.9860   -7.8543 C.3     1  UNL1        0.1715
     34 C          17.1396   70.2714   -6.7645 C.3     1  UNL1        0.1694
     35 C          19.4233   70.6320   -7.7512 C.3     1  UNL1        0.1967
     36 C          17.7819   70.4691   -5.3848 C.3     1  UNL1        0.1761
     37 C          19.9506   70.8176   -6.3273 C.3     1  UNL1        0.2704
     38 H          16.5055   70.7824   -9.1989 H       1  UNL1        0.2105
     39 H          15.4209   70.6658   -7.6517 H       1  UNL1        0.2105
     40 H          19.8219   71.3106   -9.5588 H       1  UNL1        0.2106
     41 O          16.0920   68.8443   -4.9234 O.3     1  UNL1       -0.3794
     42 C          17.0902   69.6369   -4.3073 C.3     1  UNL1        0.1693
     43 H          15.6435   68.3090   -4.2497 H       1  UNL1        0.2105
@<TRIPOS>UNITY_ATOM_ATTR
2 1
charge -1
26 1
charge -1
@<TRIPOS>BOND
     1    25    28    1
     2    25    24    1
     3    25    26    1
     4    25    27    2
     5     1     4    1
     6     1    24    1
     7     1     2    1
     8     1     3    2
     9     6    11    1
    10     6    12    1
    11    29    36    1
    12    29    37    1
    13     7     9    1
    14     7    13    1
    15     8    10    1
    16     8    14    1
    17    28    37    1
    18     4     5    1
    19    30    33    1
    20    30    38    1
    21    31    34    1
    22    31    39    1
    23    32    35    1
    24    32    40    1
    25    41    42    1
    26    41    43    1
    27    15    19    2
    28    16    22    2
    29    17    12    1
    30    17    19   ar
    31    17    20   ar
    32    18    19   ar
    33    18    22   ar
    34    18    23    1
    35     9    10    1
    36     9    11    1
    37    10    12    1
    38    11     5    1
    39    33    34    1
    40    33    35    1
    41    34    36    1
    42    35    37    1
    43    36    42    1
    44    20    21   ar
    45    21    22   ar
@<TRIPOS>MOLECULE
*****
 43 45 0 0 0
SMALL
GASTEIGER

@<TRIPOS>ATOM
      1 P          22.5492   72.7825   -3.7605 P.3     1  UNL1        0.2189
      2 O          23.9766   72.4975   -4.4666 O.co2   1  UNL1       -0.4371
      3 O          22.1816   74.2320   -3.6366 O.2     1  UNL1       -0.5170
      4 O          22.6314   71.9573   -2.3712 O.3     1  UNL1       -0.3112
      5 C          23.0599   72.6382   -1.2047 C.3     1  UNL1        0.1811
      6 O          23.0645   71.4281    0.8712 O.3     1  UNL1       -0.3308
      7 O          20.5022   72.8558    1.4933 O.3     1  UNL1       -0.3794
      8 O          22.3346   74.2666    2.9384 O.3     1  UNL1       -0.3779
      9 C          21.6545   73.3314    0.7997 C.3     1  UNL1        0.1713
     10 C          22.7814   73.6006    1.7749 C.3     1  UNL1        0.1895
     11 C          22.2153   72.1789   -0.0241 C.3     1  UNL1        0.1764
     12 C          23.2906   72.1985    2.0630 C.3     1  UNL1        0.2383
     13 H          20.1262   73.5746    2.0262 H       1  UNL1        0.2105
     14 H          22.0209   75.1537    2.7030 H       1  UNL1        0.2106
     15 O          24.8921   69.8719    2.0560 O.2     1  UNL1       -0.2464
     16 O          28.6565   72.2380    3.2690 O.2     1  UNL1       -0.2670
     17 N          24.6924   72.1777    2.3727 N.ar    1  UNL1       -0.2551
     18 N          26.7652   71.0520    2.6598 N.ar    1  UNL1       -0.2743
     19 C          25.4045   70.9561    2.3414 C.ar    1  UNL1        0.3323
     20 C          25.3467   73.3596    2.7027 C.ar    1  UNL1        0.0869
     21 C          26.6445   73.4338    3.0051 C.ar    1  UNL1        0.0795
     22 C          27.4608   72.2027    2.9955 C.ar    1  UNL1        0.2626
     23 H          27.2815   70.2135    2.6448 H       1  UNL1        0.1734
     24 O          21.5232   71.9016   -4.6461 O.3     1  UNL1       -0.2703
     25 P          20.2642   70.9848   -4.2132 P.3     1  UNL1        0.2208
     26 O          19.7079   71.7218   -2.8847 O.co2   1  UNL1       -0.4371
     27 O          20.5966   69.5332   -4.0229 O.2     1  UNL1       -0.5170
     28 O          19.1434   71.2723   -5.3385 O.3     1  UNL1       -0.2858
     29 O          17.2175   72.6068   -5.6945 O.3     1  UNL1       -0.3258
     30 O          15.5941   68.8880   -6.4598 O.3     1  UNL1       -0.3794
     31 O          16.0655   70.7040   -8.6341 O.3     1  UNL1       -0.3794
     32 O          17.5306   69.2081   -4.3321 O.3     1  UNL1       -0.3775
     33 C          16.6175   69.8870   -6.4550 C.3     1  UNL1        0.1715
     34 C          16.1199   71.0872   -7.2628 C.3     1  UNL1        0.1694
     35 C          16.9108   70.2942   -5.0122 C.3     1  UNL1        0.1967
     36 C          17.0451   72.2982   -7.0826 C.3     1  UNL1        0.1761
     37 C          17.7993   71.5377   -4.9459 C.3     1  UNL1        0.2704
     38 H          15.4035   68.6246   -7.3729 H       1  UNL1        0.2105
     39 H          15.4785   69.9381   -8.7340 H       1  UNL1        0.2105
     40 H          16.9582   68.4272   -4.3810 H       1  UNL1        0.2106
     41 O          15.7405   73.1578   -8.8904 O.3     1  UNL1       -0.3794
     42 C          16.4841   73.5511   -7.7517 C.3     1  UNL1        0.1693
     43 H          15.3771   73.9450   -9.3263 H       1  UNL1        0.2105
@<TRIPOS>UNITY_ATOM_ATTR
2 1
charge -1
26 1
charge -1
@<TRIPOS>BOND
     1    25    28    1
     2    25    24    1
     3    25    26    1
     4    25    27    2
     5     1     4    1
     6     1    24    1
     7     1     2    1
     8     1     3    2
     9     6    11    1
    10     6    12    1
    11    29    36    1
    12    29    37    1
    13     7     9    1
    14     7    13    1
    15     8    10    1
    16     8    14    1
    17    28    37    1
    18     4     5    1
    19    30    33    1
    20    30    38    1
    21    31    34    1
    22    31    39    1
    23    32    35    1
    24    32    40    1
    25    41    42    1
    26    41    43    1
    27    15    19    2
    28    16    22    2
    29    17    12    1
    30    17    19   ar
    31    17    20   ar
    32    18    19   ar
    33    18    22   ar
    34    18    23    1
    35     9    10    1
    36     9    11    1
    37    10    12    1
    38    11     5    1
    39    33    34    1
    40    33    35    1
    41    34    36    1
    42    35    37    1
    43    36    42    1
    44    20    21   ar
    45    21    22   ar
@<TRIPOS>MOLECULE
*****
 43 45 0 0 0
SMALL
GASTEIGER

@<TRIPOS>ATOM
      1 P          17.9002   72.6024   -2.2994 P.3     1  UNL1        0.2189
      2 O          18.0708   73.8341   -3.3343 O.co2   1  UNL1       -0.4371
      3 O          17.2248   72.9506   -1.0055 O.2     1  UNL1       -0.5170
      4 O          19.3937   71.9934   -2.1707 O.3     1  UNL1       -0.3112
      5 C          20.4017   72.4864   -3.0361 C.3     1  UNL1        0.1811
      6 O          21.2160   73.7973   -1.1943 O.3     1  UNL1       -0.3308
      7 O          21.9732   75.8566   -3.2380 O.3     1  UNL1       -0.3794
      8 O          24.3544   74.6349   -2.7148 O.3     1  UNL1       -0.3779
      9 C          22.0118   74.4337   -3.3338 C.3     1  UNL1        0.1713
     10 C          23.1717   73.8839   -2.5301 C.3     1  UNL1        0.1895
     11 C          20.8103   73.8798   -2.5781 C.3     1  UNL1        0.1764
     12 C          22.6399   73.9706   -1.1096 C.3     1  UNL1        0.2383
     13 H          22.7308   76.2332   -3.7135 H       1  UNL1        0.2105
     14 H          24.6528   74.5477   -3.6335 H       1  UNL1        0.2106
     15 O          23.1371   71.3114   -1.9214 O.2     1  UNL1       -0.2464
     16 O          24.7276   70.1435    2.2437 O.2     1  UNL1       -0.2670
     17 N          23.1840   72.9508   -0.2579 N.ar    1  UNL1       -0.2551
     18 N          23.9288   70.7321    0.1531 N.ar    1  UNL1       -0.2743
     19 C          23.3941   71.6466   -0.7633 C.ar    1  UNL1        0.3323
     20 C          23.5034   73.2483    1.0625 C.ar    1  UNL1        0.0869
     21 C          24.0114   72.3644    1.9239 C.ar    1  UNL1        0.0795
     22 C          24.2615   70.9793    1.4756 C.ar    1  UNL1        0.2626
     23 H          24.0834   69.8171   -0.1766 H       1  UNL1        0.1734
     24 O          17.1290   71.4897   -3.1826 O.3     1  UNL1       -0.2703
     25 P          17.5289   69.9694   -3.5594 P.3     1  UNL1        0.2208
     26 O          16.0997   69.2133   -3.6171 O.co2   1  UNL1       -0.4371
     27 O          18.5227   69.3446   -2.6235 O.2     1  UNL1       -0.5170
     28 O          18.0133   70.0436   -5.0972 O.3     1  UNL1       -0.2858
     29 O          19.2070   71.4758   -6.5601 O.3     1  UNL1       -0.3258
     30 O          15.7319   71.0453   -8.7485 O.3     1  UNL1       -0.3794
     31 O          18.1338   69.7411   -9.6306 O.3     1  UNL1       -0.3794
     32 O          15.6048   71.2623   -5.8647 O.3     1  UNL1       -0.3775
     33 C          16.7784   70.6248   -7.8691 C.3     1  UNL1        0.1715
     34 C          18.1084   70.7414   -8.6162 C.3     1  UNL1        0.1694
     35 C          16.7778   71.5177   -6.6296 C.3     1  UNL1        0.1967
     36 C          19.2972   70.5649   -7.6618 C.3     1  UNL1        0.1761
     37 C          18.0269   71.2976   -5.7744 C.3     1  UNL1        0.2704
     38 H          15.7265   70.4821   -9.5373 H       1  UNL1        0.2105
     39 H          17.3777   69.8636  -10.2261 H       1  UNL1        0.2105
     40 H          14.8211   71.4054   -6.4171 H       1  UNL1        0.2106
     41 O          20.9071   72.2198   -8.2772 O.3     1  UNL1       -0.3794
     42 C          20.6315   70.8333   -8.3545 C.3     1  UNL1        0.1693
     43 H          21.7536   72.4054   -8.7137 H       1  UNL1        0.2105
@<TRIPOS>UNITY_ATOM_ATTR
2 1
charge -1
26 1
charge -1
@<TRIPOS>BOND
     1    25    28    1
     2    25    24    1
     3    25    26    1
     4    25    27    2
     5     1     4    1
     6     1    24    1
     7     1     2    1
     8     1     3    2
     9     6    11    1
    10     6    12    1
    11    29    36    1
    12    29    37    1
    13     7     9    1
    14     7    13    1
    15     8    10    1
    16     8    14    1
    17    28    37    1
    18     4     5    1
    19    30    33    1
    20    30    38    1
    21    31    34    1
    22    31    39    1
    23    32    35    1
    24    32    40    1
    25    41    42    1
    26    41    43    1
    27    15    19    2
    28    16    22    2
    29    17    12    1
    30    17    19   ar
    31    17    20   ar
    32    18    19   ar
    33    18    22   ar
    34    18    23    1
    35     9    10    1
    36     9    11    1
    37    10    12    1
    38    11     5    1
    39    33    34    1
    40    33    35    1
    41    34    36    1
    42    35    37    1
    43    36    42    1
    44    20    21   ar
    45    21    22   ar
@<TRIPOS>MOLECULE
*****
 43 45 0 0 0
SMALL
GASTEIGER

@<TRIPOS>ATOM
      1 P          23.0843   73.1284   -3.4865 P.3     1  UNL1        0.2189
      2 O          24.0682   72.6501   -4.6783 O.co2   1  UNL1       -0.4371
      3 O          23.2762   74.5471   -3.0370 O.2     1  UNL1       -0.5170
      4 O          23.2780   71.9976   -2.3455 O.3     1  UNL1       -0.3112
      5 C          23.4017   72.4127   -0.9964 C.3     1  UNL1        0.1811
      6 O          24.4010   71.0769    0.7330 O.3     1  UNL1       -0.3308
      7 O          21.6386   70.0425    1.2713 O.3     1  UNL1       -0.3794
      8 O          21.9791   71.8865    3.2513 O.3     1  UNL1       -0.3779
      9 C          22.0518   71.3509    0.8808 C.3     1  UNL1        0.1713
     10 C          22.6969   72.0688    2.0479 C.3     1  UNL1        0.1895
     11 C          23.2191   71.2049   -0.0874 C.3     1  UNL1        0.1764
     12 C          24.0753   71.4312    2.0870 C.3     1  UNL1        0.2383
     13 H          20.8936   70.1099    1.8897 H       1  UNL1        0.2105
     14 H          21.1096   72.3097    3.1766 H       1  UNL1        0.2106
     15 O          26.7830   70.7322    2.4846 O.2     1  UNL1       -0.2464
     16 O          27.8364   74.9485    4.0189 O.2     1  UNL1       -0.2670
     17 N          25.0790   72.3268    2.5889 N.ar    1  UNL1       -0.2551
     18 N          27.3053   72.8322    3.2481 N.ar    1  UNL1       -0.2743
     19 C          26.4096   71.8761    2.7525 C.ar    1  UNL1        0.3323
     20 C          24.7401   73.6360    2.9128 C.ar    1  UNL1        0.0869
     21 C          25.6058   74.5350    3.3856 C.ar    1  UNL1        0.0795
     22 C          27.0164   74.1449    3.5858 C.ar    1  UNL1        0.2626
     23 H          28.2380   72.5407    3.3706 H       1  UNL1        0.1734
     24 O          21.6147   72.8023   -4.0754 O.3     1  UNL1       -0.2703
     25 P          20.5342   71.6716   -3.6668 P.3     1  UNL1        0.2208
     26 O          20.0379   72.1449   -2.2015 O.co2   1  UNL1       -0.4371
     27 O          21.0636   70.2676   -3.7178 O.2     1  UNL1       -0.5170
     28 O          19.2709   71.9455   -4.6332 O.3     1  UNL1       -0.2858
     29 O          18.6560   71.0444   -6.7371 O.3     1  UNL1       -0.3258
     30 O          17.5658   74.9781   -7.3602 O.3     1  UNL1       -0.3794
     31 O          15.5316   72.9831   -6.9995 O.3     1  UNL1       -0.3794
     32 O          19.9711   74.3649   -5.8708 O.3     1  UNL1       -0.3775
     33 C          17.7500   73.7822   -6.5978 C.3     1  UNL1        0.1715
     34 C          16.9037   72.6754   -7.2300 C.3     1  UNL1        0.1694
     35 C          19.2296   73.4030   -6.6135 C.3     1  UNL1        0.1967
     36 C          17.2510   71.3041   -6.6349 C.3     1  UNL1        0.1761
     37 C          19.4597   72.0017   -6.0448 C.3     1  UNL1        0.2704
     38 H          16.6284   75.2246   -7.3538 H       1  UNL1        0.2105
     39 H          15.3255   73.8515   -7.3797 H       1  UNL1        0.2105
     40 H          19.8172   75.2476   -6.2409 H       1  UNL1        0.2106
     41 O          16.1071   70.6398   -8.6246 O.3     1  UNL1       -0.3794
     42 C          16.5334   70.1677   -7.3598 C.3     1  UNL1        0.1693
     43 H          15.6489   69.9270   -9.0975 H       1  UNL1        0.2105
@<TRIPOS>UNITY_ATOM_ATTR
2 1
charge -1
26 1
charge -1
@<TRIPOS>BOND
     1    25    28    1
     2    25    24    1
     3    25    26    1
     4    25    27    2
     5     1     4    1
     6     1    24    1
     7     1     2    1
     8     1     3    2
     9     6    11    1
    10     6    12    1
    11    29    36    1
    12    29    37    1
    13     7     9    1
    14     7    13    1
    15     8    10    1
    16     8    14    1
    17    28    37    1
    18     4     5    1
    19    30    33    1
    20    30    38    1
    21    31    34    1
    22    31    39    1
    23    32    35    1
    24    32    40    1
    25    41    42    1
    26    41    43    1
    27    15    19    2
    28    16    22    2
    29    17    12    1
    30    17    19   ar
    31    17    20   ar
    32    18    19   ar
    33    18    22   ar
    34    18    23    1
    35     9    10    1
    36     9    11    1
    37    10    12    1
    38    11     5    1
    39    33    34    1
    40    33    35    1
    41    34    36    1
    42    35    37    1
    43    36    42    1
    44    20    21   ar
    45    21    22   ar
@<TRIPOS>MOLECULE
*****
 43 45 0 0 0
SMALL
GASTEIGER

@<TRIPOS>ATOM
      1 P          21.1693   71.2381   -0.3191 P.3     1  UNL1        0.2189
      2 O          21.6303   70.2453    0.8722 O.co2   1  UNL1       -0.4371
      3 O          22.2839   71.7546   -1.1806 O.2     1  UNL1       -0.5170
      4 O          20.2840   72.3637    0.4341 O.3     1  UNL1       -0.3112
      5 C          20.9366   73.2551    1.3214 C.3     1  UNL1        0.1811
      6 O          21.7280   72.4844    3.4553 O.3     1  UNL1       -0.3308
      7 O          19.1867   73.5996    4.5906 O.3     1  UNL1       -0.3794
      8 O          21.0133   75.5248    5.2183 O.3     1  UNL1       -0.3779
      9 C          19.9972   74.1014    3.5292 C.3     1  UNL1        0.1713
     10 C          21.2630   74.7221    4.0825 C.3     1  UNL1        0.1895
     11 C          20.5411   72.9101    2.7506 C.3     1  UNL1        0.1764
     12 C          22.0999   73.4960    4.4057 C.3     1  UNL1        0.2383
     13 H          18.8278   74.3423    5.1020 H       1  UNL1        0.2105
     14 H          20.4778   76.2915    4.9612 H       1  UNL1        0.2106
     15 O          23.6737   74.7054    6.4153 O.2     1  UNL1       -0.2464
     16 O          27.4941   74.4165    3.8538 O.2     1  UNL1       -0.2670
     17 N          23.5086   73.7485    4.2906 N.ar    1  UNL1       -0.2551
     18 N          25.5747   74.5604    5.1383 N.ar    1  UNL1       -0.2743
     19 C          24.2056   74.3620    5.3576 C.ar    1  UNL1        0.3323
     20 C          24.1846   73.3888    3.1298 C.ar    1  UNL1        0.0869
     21 C          25.4903   73.5860    2.9359 C.ar    1  UNL1        0.0795
     22 C          26.2917   74.2214    4.0017 C.ar    1  UNL1        0.2626
     23 H          26.0807   74.9865    5.8678 H       1  UNL1        0.1734
     24 O          20.0575   70.3687   -1.1071 O.3     1  UNL1       -0.2703
     25 P          19.0300   70.7775   -2.2860 P.3     1  UNL1        0.2208
     26 O          18.3801   72.1586   -1.7494 O.co2   1  UNL1       -0.4371
     27 O          18.0279   69.7125   -2.6257 O.2     1  UNL1       -0.5170
     28 O          19.9756   71.2228   -3.5159 O.3     1  UNL1       -0.2858
     29 O          21.0623   73.3070   -3.8189 O.3     1  UNL1       -0.3258
     30 O          20.3494   72.3535   -7.7729 O.3     1  UNL1       -0.3794
     31 O          23.0249   72.2075   -6.7392 O.3     1  UNL1       -0.3794
     32 O          18.3663   71.7326   -5.7576 O.3     1  UNL1       -0.3775
     33 C          20.6600   72.0839   -6.4031 C.3     1  UNL1        0.1715
     34 C          21.9468   72.8311   -6.0471 C.3     1  UNL1        0.1694
     35 C          19.5027   72.5581   -5.5261 C.3     1  UNL1        0.1967
     36 C          22.1995   72.8092   -4.5336 C.3     1  UNL1        0.1761
     37 C          19.8754   72.5434   -4.0426 C.3     1  UNL1        0.2704
     38 H          21.0801   72.0543   -8.3351 H       1  UNL1        0.2105
     39 H          22.8527   72.2276   -7.6938 H       1  UNL1        0.2105
     40 H          18.1403   71.7506   -6.7002 H       1  UNL1        0.2106
     41 O          24.5552   72.8760   -4.1398 O.3     1  UNL1       -0.3794
     42 C          23.3902   73.6805   -4.1399 C.3     1  UNL1        0.1693
     43 H          25.3212   73.4174   -3.8913 H       1  UNL1        0.2105
@<TRIPOS>UNITY_ATOM_ATTR
2 1
charge -1
26 1
charge -1
@<TRIPOS>BOND
     1    25    28    1
     2    25    24    1
     3    25    26    1
     4    25    27    2
     5     1     4    1
     6     1    24    1
     7     1     2    1
     8     1     3    2
     9     6    11    1
    10     6    12    1
    11    29    36    1
    12    29    37    1
    13     7     9    1
    14     7    13    1
    15     8    10    1
    16     8    14    1
    17    28    37    1
    18     4     5    1
    19    30    33    1
    20    30    38    1
    21    31    34    1
    22    31    39    1
    23    32    35    1
    24    32    40    1
    25    41    42    1
    26    41    43    1
    27    15    19    2
    28    16    22    2
    29    17    12    1
    30    17    19   ar
    31    17    20   ar
    32    18    19   ar
    33    18    22   ar
    34    18    23    1
    35     9    10    1
    36     9    11    1
    37    10    12    1
    38    11     5    1
    39    33    34    1
    40    33    35    1
    41    34    36    1
    42    35    37    1
    43    36    42    1
    44    20    21   ar
    45    21    22   ar
