@<TRIPOS>MOLECULE
UDP-glaA
 43 45 0 0 0
SMALL
GASTEIGER

@<TRIPOS>ATOM
      1 P          22.0197   71.5953   -3.1814 P.3     1  UNL1        0.2189
      2 O          21.3685   73.0708   -3.0537 O.3     1  UNL1       -0.4371
      3 O          23.4824   71.5759   -3.5166 O.2     1  UNL1       -0.5170
      4 O          21.0494   70.8300   -4.2246 O.3     1  UNL1       -0.3112
      5 C          20.1345   69.8717   -3.7207 C.3     1  UNL1        0.1811
      6 O          18.5081   71.2850   -4.7846 O.3     1  UNL1       -0.3308
      7 O          16.5242   70.1434   -2.8476 O.3     1  UNL1       -0.3794
      8 O          16.0014   68.7446   -5.1292 O.3     1  UNL1       -0.3779
      9 C          17.6279   69.5063   -3.4907 C.3     1  UNL1        0.1713
     10 C          17.3089   69.2479   -4.9481 C.3     1  UNL1        0.1895
     11 C          18.7627   70.5176   -3.5873 C.3     1  UNL1        0.1764
     12 C          17.4945   70.6255   -5.5611 C.3     1  UNL1        0.2383
     13 H          16.7885   70.3240   -1.9294 H       1  UNL1        0.2105
     14 H          15.9319   67.9198   -4.6184 H       1  UNL1        0.2106
     15 O          15.7543   70.2991   -7.7612 O.2     1  UNL1       -0.2464
     16 O          19.2439   70.3992  -10.7698 O.2     1  UNL1       -0.2670
     17 N          17.9209   70.5635   -6.9299 N.ar    1  UNL1       -0.2551
     18 N          17.4932   70.3486   -9.2579 N.ar    1  UNL1       -0.2743
     19 C          16.9665   70.3967   -7.9604 C.ar    1  UNL1        0.3323
     20 C          19.2723   70.6675   -7.2402 C.ar    1  UNL1        0.0869
     21 C          19.7587   70.6203   -8.4824 C.ar    1  UNL1        0.0795
     22 C          18.8288   70.4471   -9.6159 C.ar    1  UNL1        0.2626
     23 H          16.8254   70.2286  -10.0147 H       1  UNL1        0.1734
     24 O          21.6440   70.9096   -1.7658 O.3     1  UNL1       -0.2703
     25 P          21.1176   71.5562   -0.3811 P.3     1  UNL1        0.2208
     26 O          21.1268   70.3026    0.6409 O.3     1  UNL1       -0.4371
     27 O          19.7932   72.2558   -0.4923 O.2     1  UNL1       -0.5170
     28 O          22.3293   72.4983    0.1170 O.3     1  UNL1       -0.2858
     29 O          23.4183   71.9091    2.1336 O.3     1  UNL1       -0.3226
     30 O          24.7467   75.8016    1.5314 O.3     1  UNL1       -0.3794
     31 O          21.9683   75.0866    1.0074 O.3     1  UNL1       -0.3775
     32 O          25.3380   73.7250    3.2542 O.3     1  UNL1       -0.3792
     33 C          24.3147   74.4844    1.2021 C.3     1  UNL1        0.1718
     34 C          22.8858   74.2496    1.7033 C.3     1  UNL1        0.1968
     35 C          25.2685   73.4747    1.8466 C.3     1  UNL1        0.1723
     36 C          22.4751   72.7849    1.5072 C.3     1  UNL1        0.2706
     37 C          24.7428   72.0582    1.6247 C.3     1  UNL1        0.1830
     38 H          25.6544   75.9046    1.1981 H       1  UNL1        0.2105
     39 H          21.0790   74.8964    1.3508 H       1  UNL1        0.2106
     40 H          24.5104   73.4203    3.6633 H       1  UNL1        0.2106
     41 O          24.8443   69.9395    2.6270 O.co2   1  UNL1       -0.5466
     42 O          26.7505   71.1898    2.6469 O.co2   1  UNL1       -0.5466
     43 C          25.5738   71.0466    2.3479 C.2     1  UNL1        0.0799
@<TRIPOS>UNITY_ATOM_ATTR
41 1
charge -1
@<TRIPOS>BOND
     1     1     4    1
     2     1    24    1
     3     1     2    1
     4     1     3    2
     5    25    28    1
     6    25    24    1
     7    25    26    1
     8    25    27    2
     9     6    11    1
    10     6    12    1
    11    29    36    1
    12    29    37    1
    13     7     9    1
    14     7    13    1
    15     8    10    1
    16     8    14    1
    17     4     5    1
    18    28    36    1
    19    30    33    1
    20    30    38    1
    21    31    34    1
    22    31    39    1
    23    32    35    1
    24    32    40    1
    25    41    43   ar
    26    15    19    2
    27    42    43   ar
    28    16    22    2
    29    17    12    1
    30    17    19   ar
    31    17    20   ar
    32    18    19   ar
    33    18    22   ar
    34    18    23    1
    35     9    10    1
    36     9    11    1
    37    10    12    1
    38    11     5    1
    39    33    34    1
    40    33    35    1
    41    34    36    1
    42    35    37    1
    43    37    43    1
    44    20    21   ar
    45    21    22   ar
@<TRIPOS>MOLECULE
UDP-glaA
 43 45 0 0 0
SMALL
GASTEIGER

@<TRIPOS>ATOM
      1 P          22.8267   71.3077   -2.3985 P.3     1  UNL1        0.2189
      2 O          22.3173   72.7900   -2.7993 O.3     1  UNL1       -0.4371
      3 O          24.0645   70.8492   -3.1124 O.2     1  UNL1       -0.5170
      4 O          21.5172   70.3792   -2.5950 O.3     1  UNL1       -0.3112
      5 C          20.8200   70.4434   -3.8274 C.3     1  UNL1        0.1811
      6 O          18.9434   71.6044   -4.7787 O.3     1  UNL1       -0.3308
      7 O          17.3212   70.4218   -2.5514 O.3     1  UNL1       -0.3794
      8 O          16.7002   68.8097   -4.6613 O.3     1  UNL1       -0.3779
      9 C          18.4082   69.8503   -3.2790 C.3     1  UNL1        0.1713
     10 C          17.9583   69.4521   -4.6688 C.3     1  UNL1        0.1895
     11 C          19.4104   70.9586   -3.5737 C.3     1  UNL1        0.1764
     12 C          17.9260   70.7911   -5.3859 C.3     1  UNL1        0.2383
     13 H          17.6653   70.6964   -1.6844 H       1  UNL1        0.2105
     14 H          16.7767   68.0230   -4.0943 H       1  UNL1        0.2106
     15 O          15.9793   70.2188   -7.3502 O.2     1  UNL1       -0.2464
     16 O          19.0993   70.3414  -10.7398 O.2     1  UNL1       -0.2670
     17 N          18.2015   70.6684   -6.7889 N.ar    1  UNL1       -0.2551
     18 N          17.5343   70.2797   -9.0367 N.ar    1  UNL1       -0.2743
     19 C          17.1525   70.3778   -7.6922 C.ar    1  UNL1        0.3323
     20 C          19.5000   70.8352   -7.2575 C.ar    1  UNL1        0.0869
     21 C          19.8479   70.7390   -8.5426 C.ar    1  UNL1        0.0795
     22 C          18.8122   70.4371   -9.5505 C.ar    1  UNL1        0.2626
     23 H          16.7966   70.0708   -9.7040 H       1  UNL1        0.1734
     24 O          22.9707   71.3967   -0.7902 O.3     1  UNL1       -0.2703
     25 P          21.8639   71.6448    0.3613 P.3     1  UNL1        0.2208
     26 O          21.7460   70.2006    1.0800 O.3     1  UNL1       -0.4371
     27 O          20.5607   72.1936   -0.1450 O.2     1  UNL1       -0.5170
     28 O          22.6053   72.5815    1.4461 O.3     1  UNL1       -0.2858
     29 O          24.1374   72.4632    3.2456 O.3     1  UNL1       -0.3226
     30 O          20.9421   74.4998    4.9547 O.3     1  UNL1       -0.3794
     31 O          20.4751   72.2415    3.1693 O.3     1  UNL1       -0.3775
     32 O          23.5312   73.8633    5.6768 O.3     1  UNL1       -0.3792
     33 C          21.8590   74.0817    3.9474 C.3     1  UNL1        0.1718
     34 C          21.7473   72.5708    3.7170 C.3     1  UNL1        0.1968
     35 C          23.2798   74.4403    4.3912 C.3     1  UNL1        0.1723
     36 C          22.8445   72.0843    2.7621 C.3     1  UNL1        0.2706
     37 C          24.2875   73.8743    3.3930 C.3     1  UNL1        0.1830
     38 H          21.0492   75.4596    5.0687 H       1  UNL1        0.2105
     39 H          20.4547   71.2794    3.0323 H       1  UNL1        0.2106
     40 H          23.6540   72.9052    5.5666 H       1  UNL1        0.2106
     41 O          26.5522   73.3128    3.1492 O.co2   1  UNL1       -0.5466
     42 O          26.0316   74.8587    4.7418 O.co2   1  UNL1       -0.5466
     43 C          25.6940   74.0888    3.8542 C.2     1  UNL1        0.0799
@<TRIPOS>UNITY_ATOM_ATTR
41 1
charge -1
@<TRIPOS>BOND
     1     1     4    1
     2     1    24    1
     3     1     2    1
     4     1     3    2
     5    25    28    1
     6    25    24    1
     7    25    26    1
     8    25    27    2
     9     6    11    1
    10     6    12    1
    11    29    36    1
    12    29    37    1
    13     7     9    1
    14     7    13    1
    15     8    10    1
    16     8    14    1
    17     4     5    1
    18    28    36    1
    19    30    33    1
    20    30    38    1
    21    31    34    1
    22    31    39    1
    23    32    35    1
    24    32    40    1
    25    41    43   ar
    26    15    19    2
    27    42    43   ar
    28    16    22    2
    29    17    12    1
    30    17    19   ar
    31    17    20   ar
    32    18    19   ar
    33    18    22   ar
    34    18    23    1
    35     9    10    1
    36     9    11    1
    37    10    12    1
    38    11     5    1
    39    33    34    1
    40    33    35    1
    41    34    36    1
    42    35    37    1
    43    37    43    1
    44    20    21   ar
    45    21    22   ar
@<TRIPOS>MOLECULE
UDP-glaA
 43 45 0 0 0
SMALL
GASTEIGER

@<TRIPOS>ATOM
      1 P          21.8782   73.1498   -5.4895 P.3     1  UNL1        0.2189
      2 O          21.7964   74.6406   -6.1124 O.3     1  UNL1       -0.4371
      3 O          22.6728   72.1679   -6.2999 O.2     1  UNL1       -0.5170
      4 O          20.3331   72.7535   -5.2228 O.3     1  UNL1       -0.3112
      5 C          19.9997   72.1080   -4.0057 C.3     1  UNL1        0.1811
      6 O          17.9300   72.1983   -5.2232 O.3     1  UNL1       -0.3308
      7 O          16.7170   70.7387   -2.9017 O.3     1  UNL1       -0.3794
      8 O          17.0785   68.7501   -4.7321 O.3     1  UNL1       -0.3779
      9 C          18.0186   70.6048   -3.4723 C.3     1  UNL1        0.1713
     10 C          17.9398   69.8682   -4.7928 C.3     1  UNL1        0.1895
     11 C          18.4857   71.9880   -3.9063 C.3     1  UNL1        0.1764
     12 C          17.4271   70.9502   -5.7279 C.3     1  UNL1        0.2383
     13 H          16.8121   71.2492   -2.0796 H       1  UNL1        0.2105
     14 H          17.4149   68.1589   -4.0368 H       1  UNL1        0.2106
     15 O          15.7477   70.3616   -7.9207 O.2     1  UNL1       -0.2464
     16 O          19.2999   70.2874  -10.8559 O.2     1  UNL1       -0.2670
     17 N          17.8861   70.7725   -7.0759 N.ar    1  UNL1       -0.2551
     18 N          17.5177   70.3245   -9.3808 N.ar    1  UNL1       -0.2743
     19 C          16.9606   70.4785   -8.1044 C.ar    1  UNL1        0.3323
     20 C          19.2405   70.8895   -7.3680 C.ar    1  UNL1        0.0869
     21 C          19.7560   70.7404   -8.5903 C.ar    1  UNL1        0.0795
     22 C          18.8576   70.4311   -9.7202 C.ar    1  UNL1        0.2626
     23 H          16.8711   70.1122  -10.1357 H       1  UNL1        0.1734
     24 O          22.4487   73.4107   -3.9990 O.3     1  UNL1       -0.2703
     25 P          23.8285   72.9479   -3.2958 P.3     1  UNL1        0.2208
     26 O          24.9475   73.8363   -4.0539 O.3     1  UNL1       -0.4371
     27 O          24.0769   71.4674   -3.3415 O.2     1  UNL1       -0.5170
     28 O          23.7561   73.5660   -1.8069 O.3     1  UNL1       -0.2858
     29 O          22.5020   72.1698   -0.3656 O.3     1  UNL1       -0.3226
     30 O          23.2811   75.4528    2.0623 O.3     1  UNL1       -0.3794
     31 O          22.5689   75.8197   -0.7420 O.3     1  UNL1       -0.3775
     32 O          22.1999   72.9315    2.3852 O.3     1  UNL1       -0.3792
     33 C          23.4997   74.4711    1.0529 C.3     1  UNL1        0.1718
     34 C          22.4355   74.5862   -0.0438 C.3     1  UNL1        0.1968
     35 C          23.4439   73.0814    1.6932 C.3     1  UNL1        0.1723
     36 C          22.5584   73.4294   -1.0434 C.3     1  UNL1        0.2706
     37 C          23.5339   72.0119    0.6069 C.3     1  UNL1        0.1830
     38 H          23.9744   75.3413    2.7349 H       1  UNL1        0.2105
     39 H          21.8827   75.8430   -1.4300 H       1  UNL1        0.2106
     40 H          21.4931   72.8139    1.7281 H       1  UNL1        0.2106
     41 O          22.0547   70.2599    1.1032 O.co2   1  UNL1       -0.5466
     42 O          24.2493   69.9481    1.6360 O.co2   1  UNL1       -0.5466
     43 C          23.3534   70.6396    1.1738 C.2     1  UNL1        0.0799
@<TRIPOS>UNITY_ATOM_ATTR
41 1
charge -1
@<TRIPOS>BOND
     1     1     4    1
     2     1    24    1
     3     1     2    1
     4     1     3    2
     5    25    28    1
     6    25    24    1
     7    25    26    1
     8    25    27    2
     9     6    11    1
    10     6    12    1
    11    29    36    1
    12    29    37    1
    13     7     9    1
    14     7    13    1
    15     8    10    1
    16     8    14    1
    17     4     5    1
    18    28    36    1
    19    30    33    1
    20    30    38    1
    21    31    34    1
    22    31    39    1
    23    32    35    1
    24    32    40    1
    25    41    43   ar
    26    15    19    2
    27    42    43   ar
    28    16    22    2
    29    17    12    1
    30    17    19   ar
    31    17    20   ar
    32    18    19   ar
    33    18    22   ar
    34    18    23    1
    35     9    10    1
    36     9    11    1
    37    10    12    1
    38    11     5    1
    39    33    34    1
    40    33    35    1
    41    34    36    1
    42    35    37    1
    43    37    43    1
    44    20    21   ar
    45    21    22   ar
@<TRIPOS>MOLECULE
UDP-glaA
 43 45 0 0 0
SMALL
GASTEIGER

@<TRIPOS>ATOM
      1 P          21.9667   72.4213   -5.9696 P.3     1  UNL1        0.2189
      2 O          21.0991   73.7117   -5.5228 O.3     1  UNL1       -0.4371
      3 O          23.1530   72.7257   -6.8369 O.2     1  UNL1       -0.5170
      4 O          20.8708   71.4160   -6.6052 O.3     1  UNL1       -0.3112
      5 C          20.1644   71.8282   -7.7629 C.3     1  UNL1        0.1811
      6 O          18.9064   69.8416   -7.2673 O.3     1  UNL1       -0.3308
      7 O          17.9896   69.9357  -10.1207 O.3     1  UNL1       -0.3794
      8 O          15.8547   70.9685   -8.7750 O.3     1  UNL1       -0.3779
      9 C          18.2448   71.0117   -9.2181 C.3     1  UNL1        0.1713
     10 C          17.1342   71.1126   -8.1939 C.3     1  UNL1        0.1895
     11 C          19.4399   70.6279   -8.3556 C.3     1  UNL1        0.1764
     12 C          17.4758   69.9766   -7.2448 C.3     1  UNL1        0.2383
     13 H          18.7441   69.8851  -10.7321 H       1  UNL1        0.2105
     14 H          15.7577   71.6660   -9.4459 H       1  UNL1        0.2106
     15 O          16.1494   68.1082   -5.5941 O.2     1  UNL1       -0.2464
     16 O          15.8970   71.1005   -2.0983 O.2     1  UNL1       -0.2670
     17 N          17.0526   70.2404   -5.8992 N.ar    1  UNL1       -0.2551
     18 N          16.0241   69.5997   -3.8546 N.ar    1  UNL1       -0.2743
     19 C          16.3933   69.2337   -5.1557 C.ar    1  UNL1        0.3323
     20 C          17.2916   71.4859   -5.3290 C.ar    1  UNL1        0.0869
     21 C          16.9338   71.8191   -4.0870 C.ar    1  UNL1        0.0795
     22 C          16.2397   70.8254   -3.2441 C.ar    1  UNL1        0.2626
     23 H          15.5482   68.8918   -3.3017 H       1  UNL1        0.1734
     24 O          22.3268   71.7202   -4.5576 O.3     1  UNL1       -0.2703
     25 P          23.4735   72.0561   -3.4690 P.3     1  UNL1        0.2208
     26 O          24.4330   73.0978   -4.2502 O.3     1  UNL1       -0.4371
     27 O          24.1816   70.8474   -2.9273 O.2     1  UNL1       -0.5170
     28 O          22.7269   72.9483   -2.3507 O.3     1  UNL1       -0.2858
     29 O          21.2000   71.8782   -0.8937 O.3     1  UNL1       -0.3226
     30 O          20.2575   75.8900   -0.3494 O.3     1  UNL1       -0.3794
     31 O          20.8410   74.8532   -3.0122 O.3     1  UNL1       -0.3775
     32 O          19.5691   73.4902    0.8325 O.3     1  UNL1       -0.3792
     33 C          21.0636   74.7409   -0.5947 C.3     1  UNL1        0.1718
     34 C          20.6071   74.0310   -1.8737 C.3     1  UNL1        0.1968
     35 C          20.9491   73.7913    0.6010 C.3     1  UNL1        0.1723
     36 C          21.3530   72.7029   -2.0536 C.3     1  UNL1        0.2706
     37 C          21.6913   72.4917    0.2971 C.3     1  UNL1        0.1830
     38 H          20.5798   76.3052    0.4687 H       1  UNL1        0.2105
     39 H          20.5461   74.3597   -3.7960 H       1  UNL1        0.2106
     40 H          19.2648   72.8819    0.1379 H       1  UNL1        0.2106
     41 O          21.5295   70.2257    0.8827 O.co2   1  UNL1       -0.5466
     42 O          21.3356   71.7497    2.5670 O.co2   1  UNL1       -0.5466
     43 C          21.4976   71.4837    1.3849 C.2     1  UNL1        0.0799
@<TRIPOS>UNITY_ATOM_ATTR
41 1
charge -1
@<TRIPOS>BOND
     1     1     4    1
     2     1    24    1
     3     1     2    1
     4     1     3    2
     5    25    28    1
     6    25    24    1
     7    25    26    1
     8    25    27    2
     9     6    11    1
    10     6    12    1
    11    29    36    1
    12    29    37    1
    13     7     9    1
    14     7    13    1
    15     8    10    1
    16     8    14    1
    17     4     5    1
    18    28    36    1
    19    30    33    1
    20    30    38    1
    21    31    34    1
    22    31    39    1
    23    32    35    1
    24    32    40    1
    25    41    43   ar
    26    15    19    2
    27    42    43   ar
    28    16    22    2
    29    17    12    1
    30    17    19   ar
    31    17    20   ar
    32    18    19   ar
    33    18    22   ar
    34    18    23    1
    35     9    10    1
    36     9    11    1
    37    10    12    1
    38    11     5    1
    39    33    34    1
    40    33    35    1
    41    34    36    1
    42    35    37    1
    43    37    43    1
    44    20    21   ar
    45    21    22   ar
@<TRIPOS>MOLECULE
UDP-glaA
 43 45 0 0 0
SMALL
GASTEIGER

@<TRIPOS>ATOM
      1 P          21.8300   73.1260   -4.5095 P.3     1  UNL1        0.2189
      2 O          22.0871   74.7192   -4.6243 O.3     1  UNL1       -0.4371
      3 O          22.4907   72.2999   -5.5739 O.2     1  UNL1       -0.5170
      4 O          20.2206   72.9967   -4.4171 O.3     1  UNL1       -0.3112
      5 C          19.6660   71.8029   -3.8913 C.3     1  UNL1        0.1811
      6 O          17.7575   72.2137   -5.2924 O.3     1  UNL1       -0.3308
      7 O          16.1318   70.8952   -3.1453 O.3     1  UNL1       -0.3794
      8 O          16.3862   68.9136   -5.0012 O.3     1  UNL1       -0.3779
      9 C          17.4509   70.5882   -3.5965 C.3     1  UNL1        0.1713
     10 C          17.3979   69.8978   -4.9431 C.3     1  UNL1        0.1895
     11 C          18.1476   71.8988   -3.9375 C.3     1  UNL1        0.1764
     12 C          17.1355   71.0612   -5.8842 C.3     1  UNL1        0.2383
     13 H          16.2175   71.3698   -2.3009 H       1  UNL1        0.2105
     14 H          16.5671   68.2661   -4.2982 H       1  UNL1        0.2106
     15 O          15.6093   70.6653   -8.2272 O.2     1  UNL1       -0.2464
     16 O          19.3854   70.2483  -10.8360 O.2     1  UNL1       -0.2670
     17 N          17.6936   70.8475   -7.1889 N.ar    1  UNL1       -0.2551
     18 N          17.4907   70.4574   -9.5246 N.ar    1  UNL1       -0.2743
     19 C          16.8394   70.6581   -8.3004 C.ar    1  UNL1        0.3323
     20 C          19.0736   70.8268   -7.3576 C.ar    1  UNL1        0.0869
     21 C          19.6793   70.6347   -8.5315 C.ar    1  UNL1        0.0795
     22 C          18.8595   70.4282   -9.7419 C.ar    1  UNL1        0.2626
     23 H          16.8964   70.3185  -10.3375 H       1  UNL1        0.1734
     24 O          22.3084   72.7896   -3.0018 O.3     1  UNL1       -0.2703
     25 P          22.8211   71.4091   -2.3353 P.3     1  UNL1        0.2208
     26 O          24.2559   71.1666   -3.0416 O.3     1  UNL1       -0.4371
     27 O          21.8599   70.2636   -2.4748 O.2     1  UNL1       -0.5170
     28 O          23.1772   71.7988   -0.8104 O.3     1  UNL1       -0.2858
     29 O          24.4244   70.8780    0.9773 O.3     1  UNL1       -0.3226
     30 O          20.9196   72.0566    2.8765 O.3     1  UNL1       -0.3794
     31 O          20.8291   70.8016    0.2454 O.3     1  UNL1       -0.3775
     32 O          23.3963   71.1071    3.6474 O.3     1  UNL1       -0.3792
     33 C          21.9956   72.0913    1.9431 C.3     1  UNL1        0.1718
     34 C          21.9881   70.8308    1.0717 C.3     1  UNL1        0.1968
     35 C          23.3158   72.1882    2.7127 C.3     1  UNL1        0.1723
     36 C          23.2374   70.7769    0.1836 C.3     1  UNL1        0.2706
     37 C          24.4868   72.0834    1.7382 C.3     1  UNL1        0.1830
     38 H          20.9649   72.8703    3.4069 H       1  UNL1        0.2105
     39 H          20.8729   69.9935   -0.2930 H       1  UNL1        0.2106
     40 H          23.5773   70.2875    3.1568 H       1  UNL1        0.2106
     41 O          25.9361   73.1277    3.2589 O.co2   1  UNL1       -0.5466
     42 O          26.6306   71.1560    2.3495 O.co2   1  UNL1       -0.5466
     43 C          25.7967   72.0431    2.4590 C.2     1  UNL1        0.0799
@<TRIPOS>UNITY_ATOM_ATTR
41 1
charge -1
@<TRIPOS>BOND
     1     1     4    1
     2     1    24    1
     3     1     2    1
     4     1     3    2
     5    25    28    1
     6    25    24    1
     7    25    26    1
     8    25    27    2
     9     6    11    1
    10     6    12    1
    11    29    36    1
    12    29    37    1
    13     7     9    1
    14     7    13    1
    15     8    10    1
    16     8    14    1
    17     4     5    1
    18    28    36    1
    19    30    33    1
    20    30    38    1
    21    31    34    1
    22    31    39    1
    23    32    35    1
    24    32    40    1
    25    41    43   ar
    26    15    19    2
    27    42    43   ar
    28    16    22    2
    29    17    12    1
    30    17    19   ar
    31    17    20   ar
    32    18    19   ar
    33    18    22   ar
    34    18    23    1
    35     9    10    1
    36     9    11    1
    37    10    12    1
    38    11     5    1
    39    33    34    1
    40    33    35    1
    41    34    36    1
    42    35    37    1
    43    37    43    1
    44    20    21   ar
    45    21    22   ar
@<TRIPOS>MOLECULE
UDP-glaA
 43 45 0 0 0
SMALL
GASTEIGER

@<TRIPOS>ATOM
      1 P          23.4600   73.5856   -4.2201 P.3     1  UNL1        0.2189
      2 O          22.7222   75.0079   -4.4442 O.3     1  UNL1       -0.4371
      3 O          24.9522   73.6618   -4.0799 O.2     1  UNL1       -0.5170
      4 O          22.9140   72.6677   -5.4347 O.3     1  UNL1       -0.3112
      5 C          21.5426   72.3097   -5.4496 C.3     1  UNL1        0.1811
      6 O          20.4880   70.3383   -6.3304 O.3     1  UNL1       -0.3308
      7 O          20.6372   71.6814   -9.0072 O.3     1  UNL1       -0.3794
      8 O          18.0401   72.0867   -8.2815 O.3     1  UNL1       -0.3779
      9 C          20.3999   72.2541   -7.7213 C.3     1  UNL1        0.1713
     10 C          18.9965   71.9314   -7.2535 C.3     1  UNL1        0.1895
     11 C          21.2541   71.5035   -6.7080 C.3     1  UNL1        0.1764
     12 C          19.1384   70.4880   -6.8012 C.3     1  UNL1        0.2383
     13 H          21.5582   71.8803   -9.2475 H       1  UNL1        0.2105
     14 H          18.0884   73.0081   -8.5894 H       1  UNL1        0.2106
     15 O          16.4283   69.7872   -7.1745 O.2     1  UNL1       -0.2464
     16 O          15.7588   69.2315   -2.6489 O.2     1  UNL1       -0.2670
     17 N          18.2333   70.1550   -5.7386 N.ar    1  UNL1       -0.2551
     18 N          16.0966   69.5114   -4.9206 N.ar    1  UNL1       -0.2743
     19 C          16.8915   69.8181   -6.0329 C.ar    1  UNL1        0.3323
     20 C          18.6777   70.1645   -4.4210 C.ar    1  UNL1        0.0869
     21 C          17.9076   69.8693   -3.3715 C.ar    1  UNL1        0.0795
     22 C          16.4934   69.5076   -3.5924 C.ar    1  UNL1        0.2626
     23 H          15.1281   69.2668   -5.1084 H       1  UNL1        0.1734
     24 O          22.6927   72.9782   -2.9327 O.3     1  UNL1       -0.2703
     25 P          22.8209   71.5422   -2.2020 P.3     1  UNL1        0.2208
     26 O          24.1776   70.9257   -2.8307 O.3     1  UNL1       -0.4371
     27 O          21.6122   70.6637   -2.3538 O.2     1  UNL1       -0.5170
     28 O          23.2019   71.8936   -0.6738 O.3     1  UNL1       -0.2858
     29 O          24.5441   70.9493    1.0310 O.3     1  UNL1       -0.3226
     30 O          21.0892   71.9672    3.1061 O.3     1  UNL1       -0.3794
     31 O          20.9255   70.7975    0.4395 O.3     1  UNL1       -0.3775
     32 O          23.6192   71.0617    3.7458 O.3     1  UNL1       -0.3792
     33 C          22.1253   72.0624    2.1327 C.3     1  UNL1        0.1718
     34 C          22.1158   70.8316    1.2198 C.3     1  UNL1        0.1968
     35 C          23.4725   72.1704    2.8524 C.3     1  UNL1        0.1723
     36 C          23.3292   70.8415    0.2818 C.3     1  UNL1        0.2706
     37 C          24.6056   72.1302    1.8293 C.3     1  UNL1        0.1830
     38 H          21.1345   72.7640    3.6617 H       1  UNL1        0.2105
     39 H          20.9688   70.0091   -0.1274 H       1  UNL1        0.2106
     40 H          23.8017   70.2641    3.2209 H       1  UNL1        0.2106
     41 O          26.4513   70.8462    2.4989 O.co2   1  UNL1       -0.5466
     42 O          26.5108   73.0754    2.9723 O.co2   1  UNL1       -0.5466
     43 C          25.9441   72.1025    2.4960 C.2     1  UNL1        0.0799
@<TRIPOS>UNITY_ATOM_ATTR
41 1
charge -1
@<TRIPOS>BOND
     1     1     4    1
     2     1    24    1
     3     1     2    1
     4     1     3    2
     5    25    28    1
     6    25    24    1
     7    25    26    1
     8    25    27    2
     9     6    11    1
    10     6    12    1
    11    29    36    1
    12    29    37    1
    13     7     9    1
    14     7    13    1
    15     8    10    1
    16     8    14    1
    17     4     5    1
    18    28    36    1
    19    30    33    1
    20    30    38    1
    21    31    34    1
    22    31    39    1
    23    32    35    1
    24    32    40    1
    25    41    43   ar
    26    15    19    2
    27    42    43   ar
    28    16    22    2
    29    17    12    1
    30    17    19   ar
    31    17    20   ar
    32    18    19   ar
    33    18    22   ar
    34    18    23    1
    35     9    10    1
    36     9    11    1
    37    10    12    1
    38    11     5    1
    39    33    34    1
    40    33    35    1
    41    34    36    1
    42    35    37    1
    43    37    43    1
    44    20    21   ar
    45    21    22   ar
@<TRIPOS>MOLECULE
UDP-glaA
 43 45 0 0 0
SMALL
GASTEIGER

@<TRIPOS>ATOM
      1 P          23.4293   72.0011   -3.3808 P.3     1  UNL1        0.2189
      2 O          24.1805   72.9219   -4.4786 O.3     1  UNL1       -0.4371
      3 O          24.1824   70.7719   -2.9638 O.2     1  UNL1       -0.5170
      4 O          21.9666   71.7457   -4.0216 O.3     1  UNL1       -0.3112
      5 C          21.2335   70.6067   -3.6038 C.3     1  UNL1        0.1811
      6 O          19.2355   71.6342   -4.4563 O.3     1  UNL1       -0.3308
      7 O          17.8159   70.3555   -2.1453 O.3     1  UNL1       -0.3794
      8 O          17.1952   68.6955   -4.2177 O.3     1  UNL1       -0.3779
      9 C          18.8993   69.8551   -2.9285 C.3     1  UNL1        0.1713
     10 C          18.4050   69.4211   -4.2922 C.3     1  UNL1        0.1895
     11 C          19.8076   71.0270   -3.2768 C.3     1  UNL1        0.1764
     12 C          18.2448   70.7515   -5.0081 C.3     1  UNL1        0.2383
     13 H          18.1857   70.6568   -1.2979 H       1  UNL1        0.2105
     14 H          17.3543   67.9184   -3.6546 H       1  UNL1        0.2106
     15 O          16.2732   69.9231   -6.8525 O.2     1  UNL1       -0.2464
     16 O          19.1616   70.3628  -10.4165 O.2     1  UNL1       -0.2670
     17 N          18.4540   70.6410   -6.4235 N.ar    1  UNL1       -0.2551
     18 N          17.7130   70.1421   -8.6260 N.ar    1  UNL1       -0.2743
     19 C          17.3981   70.2147   -7.2626 C.ar    1  UNL1        0.3323
     20 C          19.6951   70.9533   -6.9672 C.ar    1  UNL1        0.0869
     21 C          19.9794   70.8794   -8.2693 C.ar    1  UNL1        0.0795
     22 C          18.9322   70.4419   -9.2136 C.ar    1  UNL1        0.2626
     23 H          16.9692   69.8374   -9.2481 H       1  UNL1        0.1734
     24 O          23.1238   73.0428   -2.1822 O.3     1  UNL1       -0.2703
     25 P          23.1449   72.8487   -0.5777 P.3     1  UNL1        0.2208
     26 O          21.5768   72.7407   -0.1963 O.3     1  UNL1       -0.4371
     27 O          23.8906   73.9217    0.1629 O.2     1  UNL1       -0.5170
     28 O          23.7233   71.3590   -0.3535 O.3     1  UNL1       -0.2858
     29 O          24.7144   71.5134    1.7896 O.3     1  UNL1       -0.3226
     30 O          20.7123   72.2652    2.6246 O.3     1  UNL1       -0.3794
     31 O          21.4636   70.1896    0.7185 O.3     1  UNL1       -0.3775
     32 O          23.1034   72.3758    4.0031 O.3     1  UNL1       -0.3792
     33 C          21.9345   72.2650    1.8921 C.3     1  UNL1        0.1718
     34 C          22.3817   70.8289    1.5990 C.3     1  UNL1        0.1968
     35 C          23.0043   72.9895    2.7137 C.3     1  UNL1        0.1723
     36 C          23.7777   70.8136    0.9639 C.3     1  UNL1        0.2706
     37 C          24.3553   72.8764    2.0106 C.3     1  UNL1        0.1830
     38 H          20.4692   73.1922    2.7895 H       1  UNL1        0.2105
     39 H          21.7923   69.2895    0.5550 H       1  UNL1        0.2106
     40 H          23.5548   71.5205    3.9043 H       1  UNL1        0.2106
     41 O          25.0301   74.5726    3.4843 O.co2   1  UNL1       -0.5466
     42 O          26.5827   72.9964    2.9346 O.co2   1  UNL1       -0.5466
     43 C          25.4547   73.4583    2.8411 C.2     1  UNL1        0.0799
@<TRIPOS>UNITY_ATOM_ATTR
41 1
charge -1
@<TRIPOS>BOND
     1     1     4    1
     2     1    24    1
     3     1     2    1
     4     1     3    2
     5    25    28    1
     6    25    24    1
     7    25    26    1
     8    25    27    2
     9     6    11    1
    10     6    12    1
    11    29    36    1
    12    29    37    1
    13     7     9    1
    14     7    13    1
    15     8    10    1
    16     8    14    1
    17     4     5    1
    18    28    36    1
    19    30    33    1
    20    30    38    1
    21    31    34    1
    22    31    39    1
    23    32    35    1
    24    32    40    1
    25    41    43   ar
    26    15    19    2
    27    42    43   ar
    28    16    22    2
    29    17    12    1
    30    17    19   ar
    31    17    20   ar
    32    18    19   ar
    33    18    22   ar
    34    18    23    1
    35     9    10    1
    36     9    11    1
    37    10    12    1
    38    11     5    1
    39    33    34    1
    40    33    35    1
    41    34    36    1
    42    35    37    1
    43    37    43    1
    44    20    21   ar
    45    21    22   ar
@<TRIPOS>MOLECULE
UDP-glaA
 43 45 0 0 0
SMALL
GASTEIGER

@<TRIPOS>ATOM
      1 P          22.1007   73.1623   -4.9072 P.3     1  UNL1        0.2189
      2 O          22.2607   74.7689   -4.8037 O.3     1  UNL1       -0.4371
      3 O          23.0637   72.4891   -5.8408 O.2     1  UNL1       -0.5170
      4 O          20.5326   72.9475   -5.2398 O.3     1  UNL1       -0.3112
      5 C          19.6000   73.8955   -4.7493 C.3     1  UNL1        0.1811
      6 O          17.6156   72.7749   -5.5112 O.3     1  UNL1       -0.3308
      7 O          17.4557   71.5883   -2.7621 O.3     1  UNL1       -0.3794
      8 O          18.5153   69.5492   -4.2300 O.3     1  UNL1       -0.3779
      9 C          18.6069   71.8825   -3.5532 C.3     1  UNL1        0.1713
     10 C          18.7485   70.8709   -4.6709 C.3     1  UNL1        0.1895
     11 C          18.3329   73.1692   -4.3208 C.3     1  UNL1        0.1764
     12 C          17.7022   71.3485   -5.6635 C.3     1  UNL1        0.2383
     13 H          17.3840   72.2828   -2.0853 H       1  UNL1        0.2105
     14 H          19.1548   69.3598   -3.5220 H       1  UNL1        0.2106
     15 O          15.8405   71.0309   -7.7631 O.2     1  UNL1       -0.2464
     16 O          19.1710   70.1793  -10.8325 O.2     1  UNL1       -0.2670
     17 N          18.0550   71.0442   -7.0208 N.ar    1  UNL1       -0.2551
     18 N          17.5002   70.6065   -9.2901 N.ar    1  UNL1       -0.2743
     19 C          17.0433   70.9044   -7.9994 C.ar    1  UNL1        0.3323
     20 C          19.3915   70.8871   -7.3711 C.ar    1  UNL1        0.0869
     21 C          19.8110   70.6037   -8.6062 C.ar    1  UNL1        0.0795
     22 C          18.8181   70.4406   -9.6866 C.ar    1  UNL1        0.2626
     23 H          16.7903   70.5009  -10.0098 H       1  UNL1        0.1734
     24 O          22.2134   72.6870   -3.3656 O.3     1  UNL1       -0.2703
     25 P          22.3892   71.2157   -2.7199 P.3     1  UNL1        0.2208
     26 O          23.9936   71.0126   -2.6908 O.3     1  UNL1       -0.4371
     27 O          21.6402   70.1325   -3.4421 O.2     1  UNL1       -0.5170
     28 O          21.9722   71.3961   -1.1715 O.3     1  UNL1       -0.2858
     29 O          23.6539   72.7129   -0.1530 O.3     1  UNL1       -0.3226
     30 O          21.0301   72.0569    3.0037 O.3     1  UNL1       -0.3794
     31 O          21.6660   69.9099    1.1350 O.3     1  UNL1       -0.3775
     32 O          23.2661   73.6124    2.5449 O.3     1  UNL1       -0.3792
     33 C          21.4598   72.2733    1.6625 C.3     1  UNL1        0.1718
     34 C          22.3827   71.1379    1.2071 C.3     1  UNL1        0.1968
     35 C          22.2003   73.6115    1.5895 C.3     1  UNL1        0.1723
     36 C          22.9860   71.4469   -0.1687 C.3     1  UNL1        0.2706
     37 C          22.7916   73.7954    0.1935 C.3     1  UNL1        0.1830
     38 H          20.4519   72.7989    3.2499 H       1  UNL1        0.2105
     39 H          22.2869   69.2250    0.8345 H       1  UNL1        0.2106
     40 H          23.9775   73.0379    2.2147 H       1  UNL1        0.2106
     41 O          24.5870   74.8968   -0.8394 O.co2   1  UNL1       -0.5466
     42 O          23.4863   76.0247    0.8078 O.co2   1  UNL1       -0.5466
     43 C          23.6336   75.0290    0.1141 C.2     1  UNL1        0.0799
@<TRIPOS>UNITY_ATOM_ATTR
41 1
charge -1
@<TRIPOS>BOND
     1     1     4    1
     2     1    24    1
     3     1     2    1
     4     1     3    2
     5    25    28    1
     6    25    24    1
     7    25    26    1
     8    25    27    2
     9     6    11    1
    10     6    12    1
    11    29    36    1
    12    29    37    1
    13     7     9    1
    14     7    13    1
    15     8    10    1
    16     8    14    1
    17     4     5    1
    18    28    36    1
    19    30    33    1
    20    30    38    1
    21    31    34    1
    22    31    39    1
    23    32    35    1
    24    32    40    1
    25    41    43   ar
    26    15    19    2
    27    42    43   ar
    28    16    22    2
    29    17    12    1
    30    17    19   ar
    31    17    20   ar
    32    18    19   ar
    33    18    22   ar
    34    18    23    1
    35     9    10    1
    36     9    11    1
    37    10    12    1
    38    11     5    1
    39    33    34    1
    40    33    35    1
    41    34    36    1
    42    35    37    1
    43    37    43    1
    44    20    21   ar
    45    21    22   ar
@<TRIPOS>MOLECULE
UDP-glaA
 43 45 0 0 0
SMALL
GASTEIGER

@<TRIPOS>ATOM
      1 P          23.2065   72.4257   -3.5224 P.3     1  UNL1        0.2189
      2 O          23.5863   70.9562   -2.9622 O.3     1  UNL1       -0.4371
      3 O          24.2230   73.0342   -4.4435 O.2     1  UNL1       -0.5170
      4 O          22.8685   73.2758   -2.1887 O.3     1  UNL1       -0.3112
      5 C          21.8913   74.2996   -2.2674 C.3     1  UNL1        0.1811
      6 O          21.0531   72.7203   -0.6618 O.3     1  UNL1       -0.3308
      7 O          19.0929   74.8474    0.1282 O.3     1  UNL1       -0.3794
      8 O          20.9789   75.0174    2.0902 O.3     1  UNL1       -0.3779
      9 C          20.4533   74.9807   -0.2832 C.3     1  UNL1        0.1713
     10 C          21.3832   74.5351    0.8255 C.3     1  UNL1        0.1895
     11 C          20.7219   73.9398   -1.3621 C.3     1  UNL1        0.1764
     12 C          21.2955   73.0220    0.7222 C.3     1  UNL1        0.2383
     13 H          18.5355   75.1063   -0.6254 H       1  UNL1        0.2105
     14 H          20.9569   75.9886    2.0398 H       1  UNL1        0.2106
     15 O          21.5535   70.2406    1.1380 O.2     1  UNL1       -0.2464
     16 O          25.9912   70.6433    2.3145 O.2     1  UNL1       -0.2670
     17 N          22.5065   72.3731    1.1366 N.ar    1  UNL1       -0.2551
     18 N          23.7630   70.4430    1.7241 N.ar    1  UNL1       -0.2743
     19 C          22.5301   70.9704    1.3179 C.ar    1  UNL1        0.3323
     20 C          23.6546   73.1251    1.3594 C.ar    1  UNL1        0.0869
     21 C          24.8227   72.6074    1.7460 C.ar    1  UNL1        0.0795
     22 C          24.9319   71.1505    1.9585 C.ar    1  UNL1        0.2626
     23 H          23.8032   69.4367    1.8612 H       1  UNL1        0.1734
     24 O          21.7495   72.1954   -4.1851 O.3     1  UNL1       -0.2703
     25 P          21.1386   72.6849   -5.5993 P.3     1  UNL1        0.2208
     26 O          21.9379   71.7853   -6.6800 O.3     1  UNL1       -0.4371
     27 O          21.2350   74.1655   -5.8325 O.2     1  UNL1       -0.5170
     28 O          19.6333   72.1038   -5.6176 O.3     1  UNL1       -0.2858
     29 O          19.2356   69.8671   -4.9553 O.3     1  UNL1       -0.3226
     30 O          15.7432   70.8022   -7.0067 O.3     1  UNL1       -0.3794
     31 O          18.3349   71.6791   -8.0168 O.3     1  UNL1       -0.3775
     32 O          16.6506   68.7170   -5.4387 O.3     1  UNL1       -0.3792
     33 C          16.8893   71.0022   -6.1841 C.3     1  UNL1        0.1718
     34 C          18.1710   70.7218   -6.9759 C.3     1  UNL1        0.1968
     35 C          16.8029   70.0635   -4.9776 C.3     1  UNL1        0.1723
     36 C          19.3981   70.7667   -6.0568 C.3     1  UNL1        0.2706
     37 C          18.0885   70.1601   -4.1590 C.3     1  UNL1        0.1830
     38 H          14.9573   70.9881   -6.4651 H       1  UNL1        0.2105
     39 H          19.1613   71.4674   -8.4827 H       1  UNL1        0.2106
     40 H          17.5032   68.4139   -5.7942 H       1  UNL1        0.2106
     41 O          18.3555   69.7764   -1.8601 O.co2   1  UNL1       -0.5466
     42 O          17.9096   67.9647   -3.1701 O.co2   1  UNL1       -0.5466
     43 C          18.1024   69.1651   -3.0424 C.2     1  UNL1        0.0799
@<TRIPOS>UNITY_ATOM_ATTR
41 1
charge -1
@<TRIPOS>BOND
     1     1     4    1
     2     1    24    1
     3     1     2    1
     4     1     3    2
     5    25    28    1
     6    25    24    1
     7    25    26    1
     8    25    27    2
     9     6    11    1
    10     6    12    1
    11    29    36    1
    12    29    37    1
    13     7     9    1
    14     7    13    1
    15     8    10    1
    16     8    14    1
    17     4     5    1
    18    28    36    1
    19    30    33    1
    20    30    38    1
    21    31    34    1
    22    31    39    1
    23    32    35    1
    24    32    40    1
    25    41    43   ar
    26    15    19    2
    27    42    43   ar
    28    16    22    2
    29    17    12    1
    30    17    19   ar
    31    17    20   ar
    32    18    19   ar
    33    18    22   ar
    34    18    23    1
    35     9    10    1
    36     9    11    1
    37    10    12    1
    38    11     5    1
    39    33    34    1
    40    33    35    1
    41    34    36    1
    42    35    37    1
    43    37    43    1
    44    20    21   ar
    45    21    22   ar
@<TRIPOS>MOLECULE
UDP-glaA
 43 45 0 0 0
SMALL
GASTEIGER

@<TRIPOS>ATOM
      1 P          20.2464   72.0016   -1.6569 P.3     1  UNL1        0.2189
      2 O          20.6893   70.7223   -0.7711 O.3     1  UNL1       -0.4371
      3 O          19.0443   72.7401   -1.1454 O.2     1  UNL1       -0.5170
      4 O          20.1233   71.4124   -3.1580 O.3     1  UNL1       -0.3112
      5 C          19.3569   70.2378   -3.3639 C.3     1  UNL1        0.1811
      6 O          17.6702   71.3528   -4.6626 O.3     1  UNL1       -0.3308
      7 O          15.6709   69.8097   -3.0461 O.3     1  UNL1       -0.3794
      8 O          15.7649   68.4011   -5.3791 O.3     1  UNL1       -0.3779
      9 C          16.9578   69.4067   -3.5145 C.3     1  UNL1        0.1713
     10 C          16.9129   69.1335   -5.0031 C.3     1  UNL1        0.1895
     11 C          17.8839   70.6136   -3.4398 C.3     1  UNL1        0.1764
     12 C          16.9252   70.5379   -5.5825 C.3     1  UNL1        0.2383
     13 H          15.7574   70.0110   -2.0987 H       1  UNL1        0.2105
     14 H          15.7766   67.5640   -4.8837 H       1  UNL1        0.2106
     15 O          15.5562   70.2768   -8.0387 O.2     1  UNL1       -0.2464
     16 O          19.4427   70.7666  -10.4664 O.2     1  UNL1       -0.2670
     17 N          17.5541   70.5938   -6.8711 N.ar    1  UNL1       -0.2551
     18 N          17.4925   70.5203   -9.2459 N.ar    1  UNL1       -0.2743
     19 C          16.7762   70.4504   -8.0438 C.ar    1  UNL1        0.3323
     20 C          18.9277   70.7887   -6.9642 C.ar    1  UNL1        0.0869
     21 C          19.5959   70.8535   -8.1180 C.ar    1  UNL1        0.0795
     22 C          18.8579   70.7123   -9.3888 C.ar    1  UNL1        0.2626
     23 H          16.9537   70.4192  -10.1019 H       1  UNL1        0.1734
     24 O          21.6007   72.8830   -1.7228 O.3     1  UNL1       -0.2703
     25 P          23.0697   72.6175   -1.1031 P.3     1  UNL1        0.2208
     26 O          23.9526   73.8299   -1.7087 O.3     1  UNL1       -0.4371
     27 O          23.6195   71.2487   -1.3861 O.2     1  UNL1       -0.5170
     28 O          22.9207   72.9647    0.4657 O.3     1  UNL1       -0.2858
     29 O          24.6488   74.0305    1.6810 O.3     1  UNL1       -0.3226
     30 O          22.4158   72.2640    4.7096 O.3     1  UNL1       -0.3794
     31 O          22.9299   70.8334    2.2207 O.3     1  UNL1       -0.3775
     32 O          24.5229   74.0429    4.5485 O.3     1  UNL1       -0.3792
     33 C          22.6867   72.9058    3.4666 C.3     1  UNL1        0.1718
     34 C          23.5996   72.0307    2.6011 C.3     1  UNL1        0.1968
     35 C          23.3596   74.2534    3.7413 C.3     1  UNL1        0.1723
     36 C          24.0354   72.7835    1.3378 C.3     1  UNL1        0.2706
     37 C          23.7863   74.8925    2.4216 C.3     1  UNL1        0.1830
     38 H          21.8384   72.8533    5.2243 H       1  UNL1        0.2105
     39 H          23.5415   70.3180    1.6682 H       1  UNL1        0.2106
     40 H          25.2165   73.6479    3.9935 H       1  UNL1        0.2106
     41 O          24.0701   76.8325    3.7099 O.co2   1  UNL1       -0.5466
     42 O          25.5162   76.5170    1.9760 O.co2   1  UNL1       -0.5466
     43 C          24.5636   76.1500    2.6487 C.2     1  UNL1        0.0799
@<TRIPOS>UNITY_ATOM_ATTR
41 1
charge -1
@<TRIPOS>BOND
     1     1     4    1
     2     1    24    1
     3     1     2    1
     4     1     3    2
     5    25    28    1
     6    25    24    1
     7    25    26    1
     8    25    27    2
     9     6    11    1
    10     6    12    1
    11    29    36    1
    12    29    37    1
    13     7     9    1
    14     7    13    1
    15     8    10    1
    16     8    14    1
    17     4     5    1
    18    28    36    1
    19    30    33    1
    20    30    38    1
    21    31    34    1
    22    31    39    1
    23    32    35    1
    24    32    40    1
    25    41    43   ar
    26    15    19    2
    27    42    43   ar
    28    16    22    2
    29    17    12    1
    30    17    19   ar
    31    17    20   ar
    32    18    19   ar
    33    18    22   ar
    34    18    23    1
    35     9    10    1
    36     9    11    1
    37    10    12    1
    38    11     5    1
    39    33    34    1
    40    33    35    1
    41    34    36    1
    42    35    37    1
    43    37    43    1
    44    20    21   ar
    45    21    22   ar
@<TRIPOS>MOLECULE
UDP-glaA
 43 45 0 0 0
SMALL
GASTEIGER

@<TRIPOS>ATOM
      1 P          22.9977   71.4420   -2.1095 P.3     1  UNL1        0.2189
      2 O          22.5347   72.9798   -1.9135 O.3     1  UNL1       -0.4371
      3 O          24.0163   71.2204   -3.1890 O.2     1  UNL1       -0.5170
      4 O          21.6066   70.6348   -2.2793 O.3     1  UNL1       -0.3112
      5 C          20.9202   70.7206   -3.5165 C.3     1  UNL1        0.1811
      6 O          18.9087   71.6423   -4.4538 O.3     1  UNL1       -0.3308
      7 O          17.4607   70.2783   -2.2101 O.3     1  UNL1       -0.3794
      8 O          17.0225   68.5964   -4.3112 O.3     1  UNL1       -0.3779
      9 C          18.6030   69.8408   -2.9459 C.3     1  UNL1        0.1713
     10 C          18.1931   69.3867   -4.3310 C.3     1  UNL1        0.1895
     11 C          19.4607   71.0617   -3.2516 C.3     1  UNL1        0.1764
     12 C          17.9925   70.7097   -5.0505 C.3     1  UNL1        0.2383
     13 H          17.7762   70.5953   -1.3466 H       1  UNL1        0.2105
     14 H          17.1987   67.8265   -3.7434 H       1  UNL1        0.2106
     15 O          16.1244   69.8633   -6.9920 O.2     1  UNL1       -0.2464
     16 O          19.1662   70.3914  -10.4137 O.2     1  UNL1       -0.2670
     17 N          18.2691   70.6171   -6.4555 N.ar    1  UNL1       -0.2551
     18 N          17.6405   70.1263   -8.6945 N.ar    1  UNL1       -0.2743
     19 C          17.2614   70.1796   -7.3467 C.ar    1  UNL1        0.3323
     20 C          19.5279   70.9575   -6.9381 C.ar    1  UNL1        0.0869
     21 C          19.8736   70.9018   -8.2262 C.ar    1  UNL1        0.0795
     22 C          18.8798   70.4543   -9.2220 C.ar    1  UNL1        0.2626
     23 H          16.9322   69.8140   -9.3532 H       1  UNL1        0.1734
     24 O          23.4846   71.0185   -0.6267 O.3     1  UNL1       -0.2703
     25 P          22.7115   71.0497    0.7924 P.3     1  UNL1        0.2208
     26 O          23.8562   70.6125    1.8482 O.3     1  UNL1       -0.4371
     27 O          21.4713   70.2038    0.8369 O.2     1  UNL1       -0.5170
     28 O          22.4609   72.6163    1.0872 O.3     1  UNL1       -0.2858
     29 O          21.1390   72.9390    3.0231 O.3     1  UNL1       -0.3226
     30 O          21.4874   76.8108    1.5509 O.3     1  UNL1       -0.3794
     31 O          21.0524   74.5693   -0.2636 O.3     1  UNL1       -0.3775
     32 O          20.5128   75.6174    3.8435 O.3     1  UNL1       -0.3792
     33 C          21.8612   75.4676    1.8449 C.3     1  UNL1        0.1718
     34 C          20.9123   74.4847    1.1507 C.3     1  UNL1        0.1968
     35 C          21.8124   75.2605    3.3612 C.3     1  UNL1        0.1723
     36 C          21.1992   73.0457    1.5969 C.3     1  UNL1        0.2706
     37 C          22.0710   73.7911    3.6871 C.3     1  UNL1        0.1830
     38 H          22.1120   77.3966    2.0117 H       1  UNL1        0.2105
     39 H          20.4412   73.9246   -0.6580 H       1  UNL1        0.2106
     40 H          19.8853   74.9214    3.5845 H       1  UNL1        0.2106
     41 O          20.8068   74.1468    5.6310 O.co2   1  UNL1       -0.5466
     42 O          22.6508   72.8198    5.8202 O.co2   1  UNL1       -0.5466
     43 C          21.9050   73.5172    5.1480 C.2     1  UNL1        0.0799
@<TRIPOS>UNITY_ATOM_ATTR
41 1
charge -1
@<TRIPOS>BOND
     1     1     4    1
     2     1    24    1
     3     1     2    1
     4     1     3    2
     5    25    28    1
     6    25    24    1
     7    25    26    1
     8    25    27    2
     9     6    11    1
    10     6    12    1
    11    29    36    1
    12    29    37    1
    13     7     9    1
    14     7    13    1
    15     8    10    1
    16     8    14    1
    17     4     5    1
    18    28    36    1
    19    30    33    1
    20    30    38    1
    21    31    34    1
    22    31    39    1
    23    32    35    1
    24    32    40    1
    25    41    43   ar
    26    15    19    2
    27    42    43   ar
    28    16    22    2
    29    17    12    1
    30    17    19   ar
    31    17    20   ar
    32    18    19   ar
    33    18    22   ar
    34    18    23    1
    35     9    10    1
    36     9    11    1
    37    10    12    1
    38    11     5    1
    39    33    34    1
    40    33    35    1
    41    34    36    1
    42    35    37    1
    43    37    43    1
    44    20    21   ar
    45    21    22   ar
@<TRIPOS>MOLECULE
UDP-glaA
 43 45 0 0 0
SMALL
GASTEIGER

@<TRIPOS>ATOM
      1 P          22.9888   73.0320   -4.5134 P.3     1  UNL1        0.2189
      2 O          23.2013   74.0977   -5.7119 O.3     1  UNL1       -0.4371
      3 O          24.2480   72.3969   -4.0003 O.2     1  UNL1       -0.5170
      4 O          21.8727   72.0138   -5.0906 O.3     1  UNL1       -0.3112
      5 C          21.0523   72.4451   -6.1630 C.3     1  UNL1        0.1811
      6 O          20.0891   70.2437   -6.1818 O.3     1  UNL1       -0.3308
      7 O          19.8027   70.5976   -9.1456 O.3     1  UNL1       -0.3794
      8 O          17.2809   71.1022   -8.2392 O.3     1  UNL1       -0.3779
      9 C          19.6642   71.5629   -8.1032 C.3     1  UNL1        0.1713
     10 C          18.3602   71.3530   -7.3629 C.3     1  UNL1        0.1895
     11 C          20.6955   71.2449   -7.0285 C.3     1  UNL1        0.1764
     12 C          18.6861   70.1593   -6.4814 C.3     1  UNL1        0.2383
     13 H          20.6673   70.7460   -9.5650 H       1  UNL1        0.2105
     14 H          17.2080   71.8643   -8.8392 H       1  UNL1        0.2106
     15 O          16.1454   68.9735   -6.1440 O.2     1  UNL1       -0.2464
     16 O          15.9343   70.2508   -1.7210 O.2     1  UNL1       -0.2670
     17 N          17.9448   70.1665   -5.2527 N.ar    1  UNL1       -0.2551
     18 N          16.0417   69.6108   -3.9419 N.ar    1  UNL1       -0.2743
     19 C          16.6767   69.5430   -5.1890 C.ar    1  UNL1        0.3323
     20 C          18.4750   70.7869   -4.1269 C.ar    1  UNL1        0.0869
     21 C          17.8573   70.8426   -2.9449 C.ar    1  UNL1        0.0795
     22 C          16.5287   70.2166   -2.7940 C.ar    1  UNL1        0.2626
     23 H          15.1286   69.1697   -3.8728 H       1  UNL1        0.1734
     24 O          22.1673   73.8847   -3.4118 O.3     1  UNL1       -0.2703
     25 P          22.6303   75.0973   -2.4486 P.3     1  UNL1        0.2208
     26 O          21.4171   76.1589   -2.5792 O.3     1  UNL1       -0.4371
     27 O          23.9843   75.6600   -2.7742 O.2     1  UNL1       -0.5170
     28 O          22.4963   74.5058   -0.9533 O.3     1  UNL1       -0.2858
     29 O          21.6014   72.4301   -0.2531 O.3     1  UNL1       -0.3226
     30 O          20.7534   74.8837    2.9934 O.3     1  UNL1       -0.3794
     31 O          20.4283   75.8682    0.2674 O.3     1  UNL1       -0.3775
     32 O          20.6010   72.1847    2.4260 O.3     1  UNL1       -0.3792
     33 C          21.4690   74.3701    1.8734 C.3     1  UNL1        0.1718
     34 C          20.6291   74.4981    0.5981 C.3     1  UNL1        0.1968
     35 C          21.8062   72.8993    2.1333 C.3     1  UNL1        0.1723
     36 C          21.3172   73.7948   -0.5784 C.3     1  UNL1        0.2706
     37 C          22.4474   72.2920    0.8874 C.3     1  UNL1        0.1830
     38 H          21.3205   74.7802    3.7765 H       1  UNL1        0.2105
     39 H          19.9015   75.8988   -0.5489 H       1  UNL1        0.2106
     40 H          20.1003   72.0722    1.6003 H       1  UNL1        0.2106
     41 O          21.5150   70.1392    0.9034 O.co2   1  UNL1       -0.5466
     42 O          23.7573   70.3023    1.2810 O.co2   1  UNL1       -0.5466
     43 C          22.6756   70.8228    1.0503 C.2     1  UNL1        0.0799
@<TRIPOS>UNITY_ATOM_ATTR
41 1
charge -1
@<TRIPOS>BOND
     1     1     4    1
     2     1    24    1
     3     1     2    1
     4     1     3    2
     5    25    28    1
     6    25    24    1
     7    25    26    1
     8    25    27    2
     9     6    11    1
    10     6    12    1
    11    29    36    1
    12    29    37    1
    13     7     9    1
    14     7    13    1
    15     8    10    1
    16     8    14    1
    17     4     5    1
    18    28    36    1
    19    30    33    1
    20    30    38    1
    21    31    34    1
    22    31    39    1
    23    32    35    1
    24    32    40    1
    25    41    43   ar
    26    15    19    2
    27    42    43   ar
    28    16    22    2
    29    17    12    1
    30    17    19   ar
    31    17    20   ar
    32    18    19   ar
    33    18    22   ar
    34    18    23    1
    35     9    10    1
    36     9    11    1
    37    10    12    1
    38    11     5    1
    39    33    34    1
    40    33    35    1
    41    34    36    1
    42    35    37    1
    43    37    43    1
    44    20    21   ar
    45    21    22   ar
@<TRIPOS>MOLECULE
UDP-glaA
 43 45 0 0 0
SMALL
GASTEIGER

@<TRIPOS>ATOM
      1 P          23.4925   72.2921   -3.4765 P.3     1  UNL1        0.2189
      2 O          24.1302   70.8329   -3.1912 O.3     1  UNL1       -0.4371
      3 O          24.4697   73.3288   -3.9480 O.2     1  UNL1       -0.5170
      4 O          22.6982   72.6438   -2.1122 O.3     1  UNL1       -0.3112
      5 C          23.4376   72.7586   -0.9083 C.3     1  UNL1        0.1811
      6 O          24.4849   71.2717    0.6622 O.3     1  UNL1       -0.3308
      7 O          21.7347   70.2055    1.2018 O.3     1  UNL1       -0.3794
      8 O          22.1558   71.8673    3.3224 O.3     1  UNL1       -0.3779
      9 C          22.1447   71.5421    0.9131 C.3     1  UNL1        0.1713
     10 C          22.8334   72.1515    2.1159 C.3     1  UNL1        0.1895
     11 C          23.2770   71.4768   -0.1034 C.3     1  UNL1        0.1764
     12 C          24.2080   71.5077    2.0525 C.3     1  UNL1        0.2383
     13 H          21.3351   69.8438    0.3925 H       1  UNL1        0.2105
     14 H          21.2518   72.2167    3.2397 H       1  UNL1        0.2106
     15 O          26.8949   70.7187    2.4176 O.2     1  UNL1       -0.2464
     16 O          28.0574   74.8273    4.1515 O.2     1  UNL1       -0.2670
     17 N          25.2339   72.3509    2.5966 N.ar    1  UNL1       -0.2551
     18 N          27.4719   72.7649    3.2812 N.ar    1  UNL1       -0.2743
     19 C          26.5519   71.8578    2.7391 C.ar    1  UNL1        0.3323
     20 C          24.9296   73.6516    2.9828 C.ar    1  UNL1        0.0869
     21 C          25.8181   74.5044    3.4976 C.ar    1  UNL1        0.0795
     22 C          27.2165   74.0677    3.6804 C.ar    1  UNL1        0.2626
     23 H          28.4256   72.4319    3.3934 H       1  UNL1        0.1734
     24 O          22.2988   71.9685   -4.5184 O.3     1  UNL1       -0.2703
     25 P          20.8420   71.3068   -4.2895 P.3     1  UNL1        0.2208
     26 O          20.1583   72.2837   -3.1967 O.3     1  UNL1       -0.4371
     27 O          20.8787   69.8594   -3.8902 O.2     1  UNL1       -0.5170
     28 O          20.0398   71.6005   -5.6585 O.3     1  UNL1       -0.2858
     29 O          18.2862   70.0220   -5.4774 O.3     1  UNL1       -0.3226
     30 O          17.0229   72.3649   -8.6702 O.3     1  UNL1       -0.3794
     31 O          19.8254   71.6005   -8.4111 O.3     1  UNL1       -0.3775
     32 O          15.9510   70.3504   -7.1137 O.3     1  UNL1       -0.3792
     33 C          17.6461   72.0420   -7.4302 C.3     1  UNL1        0.1718
     34 C          18.7715   71.0246   -7.6467 C.3     1  UNL1        0.1968
     35 C          16.5921   71.4634   -6.4821 C.3     1  UNL1        0.1723
     36 C          19.3331   70.5419   -6.3036 C.3     1  UNL1        0.2706
     37 C          17.2657   70.9797   -5.1998 C.3     1  UNL1        0.1830
     38 H          16.3174   73.0081   -8.4852 H       1  UNL1        0.2105
     39 H          20.5165   70.9247   -8.5138 H       1  UNL1        0.2106
     40 H          16.5680   69.5991   -7.1162 H       1  UNL1        0.2106
     41 O          16.2495   68.9620   -4.5673 O.co2   1  UNL1       -0.5466
     42 O          15.6273   70.8383   -3.4318 O.co2   1  UNL1       -0.5466
     43 C          16.2929   70.2890   -4.2977 C.2     1  UNL1        0.0799
@<TRIPOS>UNITY_ATOM_ATTR
41 1
charge -1
@<TRIPOS>BOND
     1     1     4    1
     2     1    24    1
     3     1     2    1
     4     1     3    2
     5    25    28    1
     6    25    24    1
     7    25    26    1
     8    25    27    2
     9     6    11    1
    10     6    12    1
    11    29    36    1
    12    29    37    1
    13     7     9    1
    14     7    13    1
    15     8    10    1
    16     8    14    1
    17     4     5    1
    18    28    36    1
    19    30    33    1
    20    30    38    1
    21    31    34    1
    22    31    39    1
    23    32    35    1
    24    32    40    1
    25    41    43   ar
    26    15    19    2
    27    42    43   ar
    28    16    22    2
    29    17    12    1
    30    17    19   ar
    31    17    20   ar
    32    18    19   ar
    33    18    22   ar
    34    18    23    1
    35     9    10    1
    36     9    11    1
    37    10    12    1
    38    11     5    1
    39    33    34    1
    40    33    35    1
    41    34    36    1
    42    35    37    1
    43    37    43    1
    44    20    21   ar
    45    21    22   ar
@<TRIPOS>MOLECULE
UDP-glaA
 43 45 0 0 0
SMALL
GASTEIGER

@<TRIPOS>ATOM
      1 P          21.9114   72.4831   -5.7617 P.3     1  UNL1        0.2189
      2 O          21.3077   73.9517   -5.4517 O.3     1  UNL1       -0.4371
      3 O          23.1354   72.4723   -6.6299 O.2     1  UNL1       -0.5170
      4 O          20.6435   71.6512   -6.3239 O.3     1  UNL1       -0.3112
      5 C          20.1102   72.0023   -7.5894 C.3     1  UNL1        0.1811
      6 O          18.9249   69.9572   -7.1571 O.3     1  UNL1       -0.3308
      7 O          18.1417   70.0183  -10.0509 O.3     1  UNL1       -0.3794
      8 O          15.8988   70.9450   -8.8072 O.3     1  UNL1       -0.3779
      9 C          18.3026   71.1020   -9.1357 C.3     1  UNL1        0.1713
     10 C          17.1410   71.1469   -8.1655 C.3     1  UNL1        0.1895
     11 C          19.4720   70.7716   -8.2176 C.3     1  UNL1        0.1764
     12 C          17.4901   70.0248   -7.2027 C.3     1  UNL1        0.2383
     13 H          18.9260   70.0055  -10.6256 H       1  UNL1        0.2105
     14 H          15.8012   71.6396   -9.4811 H       1  UNL1        0.2106
     15 O          16.3101   68.0520   -5.5622 O.2     1  UNL1       -0.2464
     16 O          15.6097   71.0569   -2.1390 O.2     1  UNL1       -0.2670
     17 N          16.9913   70.2636   -5.8785 N.ar    1  UNL1       -0.2551
     18 N          15.9617   69.5497   -3.8589 N.ar    1  UNL1       -0.2743
     19 C          16.4160   69.2043   -5.1385 C.ar    1  UNL1        0.3323
     20 C          17.0745   71.5368   -5.3256 C.ar    1  UNL1        0.0869
     21 C          16.6372   71.8500   -4.1040 C.ar    1  UNL1        0.0795
     22 C          16.0223   70.8014   -3.2661 C.ar    1  UNL1        0.2626
     23 H          15.5438   68.8040   -3.3089 H       1  UNL1        0.1734
     24 O          22.1278   71.8612   -4.2847 O.3     1  UNL1       -0.2703
     25 P          23.3715   71.9740   -3.2585 P.3     1  UNL1        0.2208
     26 O          24.0957   73.3502   -3.7031 O.3     1  UNL1       -0.4371
     27 O          24.2737   70.7733   -3.2498 O.2     1  UNL1       -0.5170
     28 O          22.6956   72.3104   -1.8323 O.3     1  UNL1       -0.2858
     29 O          23.2861   70.8556   -0.0619 O.3     1  UNL1       -0.3226
     30 O          20.1288   72.9982    1.5875 O.3     1  UNL1       -0.3794
     31 O          20.0203   72.0976   -1.1843 O.3     1  UNL1       -0.3775
     32 O          22.0066   71.1828    2.4866 O.3     1  UNL1       -0.3792
     33 C          21.2818   72.7425    0.7903 C.3     1  UNL1        0.1718
     34 C          20.9867   71.6478   -0.2406 C.3     1  UNL1        0.1968
     35 C          22.4292   72.3051    1.7050 C.3     1  UNL1        0.1723
     36 C          22.2649   71.2450   -0.9864 C.3     1  UNL1        0.2706
     37 C          23.6306   71.8899    0.8585 C.3     1  UNL1        0.1830
     38 H          20.3619   73.6939    2.2257 H       1  UNL1        0.2105
     39 H          19.8733   71.3770   -1.8199 H       1  UNL1        0.2106
     40 H          21.9766   70.3996    1.9114 H       1  UNL1        0.2106
     41 O          24.6529   69.9810    1.7611 O.co2   1  UNL1       -0.5466
     42 O          25.5865   71.9975    2.2700 O.co2   1  UNL1       -0.5466
     43 C          24.7302   71.3325    1.7053 C.2     1  UNL1        0.0799
@<TRIPOS>UNITY_ATOM_ATTR
41 1
charge -1
@<TRIPOS>BOND
     1     1     4    1
     2     1    24    1
     3     1     2    1
     4     1     3    2
     5    25    28    1
     6    25    24    1
     7    25    26    1
     8    25    27    2
     9     6    11    1
    10     6    12    1
    11    29    36    1
    12    29    37    1
    13     7     9    1
    14     7    13    1
    15     8    10    1
    16     8    14    1
    17     4     5    1
    18    28    36    1
    19    30    33    1
    20    30    38    1
    21    31    34    1
    22    31    39    1
    23    32    35    1
    24    32    40    1
    25    41    43   ar
    26    15    19    2
    27    42    43   ar
    28    16    22    2
    29    17    12    1
    30    17    19   ar
    31    17    20   ar
    32    18    19   ar
    33    18    22   ar
    34    18    23    1
    35     9    10    1
    36     9    11    1
    37    10    12    1
    38    11     5    1
    39    33    34    1
    40    33    35    1
    41    34    36    1
    42    35    37    1
    43    37    43    1
    44    20    21   ar
    45    21    22   ar
@<TRIPOS>MOLECULE
UDP-glaA
 43 45 0 0 0
SMALL
GASTEIGER

@<TRIPOS>ATOM
      1 P          23.0566   74.7346   -1.8523 P.3     1  UNL1        0.2189
      2 O          24.5892   74.5413   -2.3328 O.3     1  UNL1       -0.4371
      3 O          22.6360   76.1589   -1.6359 O.2     1  UNL1       -0.5170
      4 O          22.9248   73.7600   -0.5684 O.3     1  UNL1       -0.3112
      5 C          22.1013   74.1686    0.5106 C.3     1  UNL1        0.1811
      6 O          22.6501   71.9774    1.3303 O.3     1  UNL1       -0.3308
      7 O          20.1872   72.1994    3.0264 O.3     1  UNL1       -0.3794
      8 O          22.1824   72.7675    4.7963 O.3     1  UNL1       -0.3779
      9 C          21.1219   73.2122    2.6542 C.3     1  UNL1        0.1713
     10 C          22.4113   73.0478    3.4308 C.3     1  UNL1        0.1895
     11 C          21.5723   72.9338    1.2262 C.3     1  UNL1        0.1764
     12 C          23.0745   71.8923    2.7007 C.3     1  UNL1        0.2383
     13 H          19.3942   72.3209    2.4769 H       1  UNL1        0.2105
     14 H          21.6606   73.5023    5.1624 H       1  UNL1        0.2106
     15 O          24.7986   69.7364    2.1047 O.2     1  UNL1       -0.2464
     16 O          28.5557   72.2742    2.9304 O.2     1  UNL1       -0.2670
     17 N          24.5070   71.9618    2.7512 N.ar    1  UNL1       -0.2551
     18 N          26.6683   71.0014    2.5168 N.ar    1  UNL1       -0.2743
     19 C          25.2813   70.8214    2.4340 C.ar    1  UNL1        0.3323
     20 C          25.1309   73.1508    3.1123 C.ar    1  UNL1        0.0869
     21 C          26.4546   73.3066    3.1861 C.ar    1  UNL1        0.0795
     22 C          27.3350   72.1640    2.8714 C.ar    1  UNL1        0.2626
     23 H          27.2449   70.1946    2.2936 H       1  UNL1        0.1734
     24 O          22.2180   73.9504   -2.9911 O.3     1  UNL1       -0.2703
     25 P          22.4848   72.5300   -3.7150 P.3     1  UNL1        0.2208
     26 O          22.1948   71.4553   -2.5416 O.3     1  UNL1       -0.4371
     27 O          23.8414   72.4063   -4.3476 O.2     1  UNL1       -0.5170
     28 O          21.2521   72.3564   -4.7417 O.3     1  UNL1       -0.2858
     29 O          19.6451   70.6328   -4.5260 O.3     1  UNL1       -0.3226
     30 O          19.2881   71.6594   -8.5382 O.3     1  UNL1       -0.3794
     31 O          21.9136   71.4932   -7.2794 O.3     1  UNL1       -0.3775
     32 O          17.9251   70.0549   -6.7499 O.3     1  UNL1       -0.3792
     33 C          19.5113   71.8341   -7.1418 C.3     1  UNL1        0.1718
     34 C          20.7159   71.0041   -6.6852 C.3     1  UNL1        0.1968
     35 C          18.2560   71.3978   -6.3813 C.3     1  UNL1        0.1723
     36 C          20.8596   71.0495   -5.1589 C.3     1  UNL1        0.2706
     37 C          18.5248   71.4428   -4.8786 C.3     1  UNL1        0.1830
     38 H          18.5170   72.1995   -8.7819 H       1  UNL1        0.2105
     39 H          22.6474   70.9447   -6.9546 H       1  UNL1        0.2106
     40 H          18.5626   69.4532   -6.3296 H       1  UNL1        0.2106
     41 O          17.3080   71.4738   -2.8731 O.co2   1  UNL1       -0.5466
     42 O          16.5807   70.0601   -4.5069 O.co2   1  UNL1       -0.5466
     43 C          17.3687   70.9012   -4.0995 C.2     1  UNL1        0.0799
@<TRIPOS>UNITY_ATOM_ATTR
41 1
charge -1
@<TRIPOS>BOND
     1     1     4    1
     2     1    24    1
     3     1     2    1
     4     1     3    2
     5    25    28    1
     6    25    24    1
     7    25    26    1
     8    25    27    2
     9     6    11    1
    10     6    12    1
    11    29    36    1
    12    29    37    1
    13     7     9    1
    14     7    13    1
    15     8    10    1
    16     8    14    1
    17     4     5    1
    18    28    36    1
    19    30    33    1
    20    30    38    1
    21    31    34    1
    22    31    39    1
    23    32    35    1
    24    32    40    1
    25    41    43   ar
    26    15    19    2
    27    42    43   ar
    28    16    22    2
    29    17    12    1
    30    17    19   ar
    31    17    20   ar
    32    18    19   ar
    33    18    22   ar
    34    18    23    1
    35     9    10    1
    36     9    11    1
    37    10    12    1
    38    11     5    1
    39    33    34    1
    40    33    35    1
    41    34    36    1
    42    35    37    1
    43    37    43    1
    44    20    21   ar
    45    21    22   ar
@<TRIPOS>MOLECULE
UDP-glaA
 43 45 0 0 0
SMALL
GASTEIGER

@<TRIPOS>ATOM
      1 P          21.4203   73.7599   -1.2327 P.3     1  UNL1        0.2189
      2 O          20.0030   74.3288   -0.6987 O.3     1  UNL1       -0.4371
      3 O          22.6272   74.5009   -0.7365 O.2     1  UNL1       -0.5170
      4 O          21.2389   73.7075   -2.8389 O.3     1  UNL1       -0.3112
      5 C          20.6508   72.5545   -3.4170 C.3     1  UNL1        0.1811
      6 O          20.9590   70.8633   -5.0960 O.3     1  UNL1       -0.3308
      7 O          23.3310   72.4589   -6.0011 O.3     1  UNL1       -0.3794
      8 O          21.4204   73.1479   -7.8207 O.3     1  UNL1       -0.3779
      9 C          22.0775   72.9139   -5.4917 C.3     1  UNL1        0.1713
     10 C          20.9939   72.7451   -6.5356 C.3     1  UNL1        0.1895
     11 C          21.6303   71.9418   -4.4079 C.3     1  UNL1        0.1764
     12 C          20.7078   71.2552   -6.4556 C.3     1  UNL1        0.2383
     13 H          23.9844   72.5497   -5.2867 H       1  UNL1        0.2105
     14 H          21.6875   74.0813   -7.7612 H       1  UNL1        0.2106
     15 O          18.8677   70.0534   -4.6822 O.2     1  UNL1       -0.2464
     16 O          15.5168   70.0874   -7.8459 O.2     1  UNL1       -0.2670
     17 N          19.3482   70.9393   -6.7892 N.ar    1  UNL1       -0.2551
     18 N          17.2005   70.0706   -6.2589 N.ar    1  UNL1       -0.2743
     19 C          18.5064   70.3357   -5.8260 C.ar    1  UNL1        0.3323
     20 C          18.8613   71.2274   -8.0593 C.ar    1  UNL1        0.0869
     21 C          17.6134   70.9690   -8.4566 C.ar    1  UNL1        0.0795
     22 C          16.6706   70.3385   -7.5116 C.ar    1  UNL1        0.2626
     23 H          16.5776   69.6362   -5.5833 H       1  UNL1        0.1734
     24 O          21.3669   72.1999   -0.8102 O.3     1  UNL1       -0.2703
     25 P          22.1671   71.3828    0.3321 P.3     1  UNL1        0.2208
     26 O          23.6138   71.1224   -0.3426 O.3     1  UNL1       -0.4371
     27 O          21.4694   70.1388    0.8026 O.2     1  UNL1       -0.5170
     28 O          22.4469   72.4693    1.4919 O.3     1  UNL1       -0.2858
     29 O          24.1251   72.3657    3.1569 O.3     1  UNL1       -0.3226
     30 O          21.1887   74.6427    5.0204 O.3     1  UNL1       -0.3794
     31 O          20.4641   72.3233    3.4075 O.3     1  UNL1       -0.3775
     32 O          23.8000   73.9151    5.5511 O.3     1  UNL1       -0.3792
     33 C          21.9931   74.1291    3.9623 C.3     1  UNL1        0.1718
     34 C          21.7933   72.6159    3.8252 C.3     1  UNL1        0.1968
     35 C          23.4624   74.4384    4.2623 C.3     1  UNL1        0.1723
     36 C          22.7787   72.0279    2.8076 C.3     1  UNL1        0.2706
     37 C          24.3513   73.7733    3.2137 C.3     1  UNL1        0.1830
     38 H          21.3487   75.6004    5.0722 H       1  UNL1        0.2105
     39 H          20.3882   71.3577    3.3256 H       1  UNL1        0.2106
     40 H          23.8691   72.9478    5.4833 H       1  UNL1        0.2106
     41 O          26.5554   73.0683    2.8284 O.co2   1  UNL1       -0.5466
     42 O          26.2524   74.7518    4.3354 O.co2   1  UNL1       -0.5466
     43 C          25.8013   73.9404    3.5400 C.2     1  UNL1        0.0799
@<TRIPOS>UNITY_ATOM_ATTR
41 1
charge -1
@<TRIPOS>BOND
     1     1     4    1
     2     1    24    1
     3     1     2    1
     4     1     3    2
     5    25    28    1
     6    25    24    1
     7    25    26    1
     8    25    27    2
     9     6    11    1
    10     6    12    1
    11    29    36    1
    12    29    37    1
    13     7     9    1
    14     7    13    1
    15     8    10    1
    16     8    14    1
    17     4     5    1
    18    28    36    1
    19    30    33    1
    20    30    38    1
    21    31    34    1
    22    31    39    1
    23    32    35    1
    24    32    40    1
    25    41    43   ar
    26    15    19    2
    27    42    43   ar
    28    16    22    2
    29    17    12    1
    30    17    19   ar
    31    17    20   ar
    32    18    19   ar
    33    18    22   ar
    34    18    23    1
    35     9    10    1
    36     9    11    1
    37    10    12    1
    38    11     5    1
    39    33    34    1
    40    33    35    1
    41    34    36    1
    42    35    37    1
    43    37    43    1
    44    20    21   ar
    45    21    22   ar
@<TRIPOS>MOLECULE
UDP-glaA
 43 45 0 0 0
SMALL
GASTEIGER

@<TRIPOS>ATOM
      1 P          21.8538   72.3462   -5.7841 P.3     1  UNL1        0.2189
      2 O          21.0353   73.7049   -5.4658 O.3     1  UNL1       -0.4371
      3 O          23.1381   72.5422   -6.5354 O.2     1  UNL1       -0.5170
      4 O          20.7610   71.3909   -6.4973 O.3     1  UNL1       -0.3112
      5 C          20.2376   71.7819   -7.7552 C.3     1  UNL1        0.1811
      6 O          18.9341   69.8168   -7.2930 O.3     1  UNL1       -0.3308
      7 O          18.0294   69.9734  -10.1476 O.3     1  UNL1       -0.3794
      8 O          15.9133   71.0335   -8.7932 O.3     1  UNL1       -0.3779
      9 C          18.3053   71.0301   -9.2283 C.3     1  UNL1        0.1713
     10 C          17.1937   71.1405   -8.2061 C.3     1  UNL1        0.1895
     11 C          19.4886   70.6070   -8.3678 C.3     1  UNL1        0.1764
     12 C          17.5068   69.9833   -7.2729 C.3     1  UNL1        0.2383
     13 H          18.7846   69.9151  -10.7572 H       1  UNL1        0.2105
     14 H          15.8342   71.7429   -9.4541 H       1  UNL1        0.2106
     15 O          16.1551   68.1122   -5.6458 O.2     1  UNL1       -0.2464
     16 O          15.9346   71.0665   -2.1157 O.2     1  UNL1       -0.2670
     17 N          17.0849   70.2366   -5.9249 N.ar    1  UNL1       -0.2551
     18 N          16.0457   69.5847   -3.8892 N.ar    1  UNL1       -0.2743
     19 C          16.4123   69.2295   -5.1940 C.ar    1  UNL1        0.3323
     20 C          17.3383   71.4723   -5.3399 C.ar    1  UNL1        0.0869
     21 C          16.9829   71.7954   -4.0945 C.ar    1  UNL1        0.0795
     22 C          16.2755   70.8006   -3.2641 C.ar    1  UNL1        0.2626
     23 H          15.5604   68.8764   -3.3452 H       1  UNL1        0.1734
     24 O          22.0242   71.6750   -4.3227 O.3     1  UNL1       -0.2703
     25 P          23.1424   71.8984   -3.1772 P.3     1  UNL1        0.2208
     26 O          23.5978   73.4347   -3.3977 O.3     1  UNL1       -0.4371
     27 O          24.2694   70.9062   -3.2147 O.2     1  UNL1       -0.5170
     28 O          22.3129   71.9129   -1.7932 O.3     1  UNL1       -0.2858
     29 O          21.4557   73.7869   -0.6302 O.3     1  UNL1       -0.3226
     30 O          22.1587   71.0932    2.4567 O.3     1  UNL1       -0.3794
     31 O          24.0671   71.3703    0.2687 O.3     1  UNL1       -0.3775
     32 O          20.9308   73.5522    2.1819 O.3     1  UNL1       -0.3792
     33 C          21.8107   71.5516    1.1532 C.3     1  UNL1        0.1718
     34 C          22.9960   72.2772    0.5077 C.3     1  UNL1        0.1968
     35 C          20.6137   72.4998    1.2649 C.3     1  UNL1        0.1723
     36 C          22.5803   72.9220   -0.8204 C.3     1  UNL1        0.2706
     37 C          20.3149   73.1124   -0.1017 C.3     1  UNL1        0.1830
     38 H          21.3801   70.6435    2.8271 H       1  UNL1        0.2105
     39 H          24.7884   71.8713   -0.1479 H       1  UNL1        0.2106
     40 H          21.5545   74.1604    1.7504 H       1  UNL1        0.2106
     41 O          19.7656   75.3901    0.0165 O.co2   1  UNL1       -0.5466
     42 O          18.0371   73.9038    0.0201 O.co2   1  UNL1       -0.5466
     43 C          19.2353   74.1438   -0.0149 C.2     1  UNL1        0.0799
@<TRIPOS>UNITY_ATOM_ATTR
41 1
charge -1
@<TRIPOS>BOND
     1     1     4    1
     2     1    24    1
     3     1     2    1
     4     1     3    2
     5    25    28    1
     6    25    24    1
     7    25    26    1
     8    25    27    2
     9     6    11    1
    10     6    12    1
    11    29    36    1
    12    29    37    1
    13     7     9    1
    14     7    13    1
    15     8    10    1
    16     8    14    1
    17     4     5    1
    18    28    36    1
    19    30    33    1
    20    30    38    1
    21    31    34    1
    22    31    39    1
    23    32    35    1
    24    32    40    1
    25    41    43   ar
    26    15    19    2
    27    42    43   ar
    28    16    22    2
    29    17    12    1
    30    17    19   ar
    31    17    20   ar
    32    18    19   ar
    33    18    22   ar
    34    18    23    1
    35     9    10    1
    36     9    11    1
    37    10    12    1
    38    11     5    1
    39    33    34    1
    40    33    35    1
    41    34    36    1
    42    35    37    1
    43    37    43    1
    44    20    21   ar
    45    21    22   ar
@<TRIPOS>MOLECULE
UDP-glaA
 43 45 0 0 0
SMALL
GASTEIGER

@<TRIPOS>ATOM
      1 P          22.7298   72.5821   -4.6258 P.3     1  UNL1        0.2189
      2 O          21.9236   73.9844   -4.6572 O.3     1  UNL1       -0.4371
      3 O          24.1886   72.6980   -4.2930 O.2     1  UNL1       -0.5170
      4 O          22.3862   71.9030   -6.0528 O.3     1  UNL1       -0.3112
      5 C          21.0933   72.0957   -6.6009 C.3     1  UNL1        0.1811
      6 O          19.6359   70.2557   -6.0863 O.3     1  UNL1       -0.3308
      7 O          19.7671   69.5789   -9.0045 O.3     1  UNL1       -0.3794
      8 O          17.3581   70.8390   -8.7932 O.3     1  UNL1       -0.3779
      9 C          19.7529   70.8596   -8.3741 C.3     1  UNL1        0.1713
     10 C          18.3642   71.1768   -7.8608 C.3     1  UNL1        0.1895
     11 C          20.5541   70.7565   -7.0830 C.3     1  UNL1        0.1764
     12 C          18.2951   70.3364   -6.5970 C.3     1  UNL1        0.2383
     13 H          20.6824   69.4024   -9.2815 H       1  UNL1        0.2105
     14 H          17.5367   71.3367   -9.6096 H       1  UNL1        0.2106
     15 O          16.5691   68.8670   -4.9126 O.2     1  UNL1       -0.2464
     16 O          15.0901   72.6831   -2.7939 O.2     1  UNL1       -0.2670
     17 N          17.4483   70.9201   -5.5962 N.ar    1  UNL1       -0.2551
     18 N          15.8334   70.7683   -3.8590 N.ar    1  UNL1       -0.2743
     19 C          16.6182   70.0936   -4.8034 C.ar    1  UNL1        0.3323
     20 C          17.4456   72.2978   -5.4081 C.ar    1  UNL1        0.0869
     21 C          16.6919   72.9260   -4.5031 C.ar    1  UNL1        0.0795
     22 C          15.7962   72.1359   -3.6353 C.ar    1  UNL1        0.2626
     23 H          15.2283   70.1942   -3.2782 H       1  UNL1        0.1734
     24 O          21.8699   71.6930   -3.5841 O.3     1  UNL1       -0.2703
     25 P          21.0395   72.1153   -2.2632 P.3     1  UNL1        0.2208
     26 O          20.4189   70.7124   -1.7507 O.3     1  UNL1       -0.4371
     27 O          20.0221   73.1957   -2.4945 O.2     1  UNL1       -0.5170
     28 O          22.1686   72.4856   -1.1714 O.3     1  UNL1       -0.2858
     29 O          22.7384   71.5683    0.9342 O.3     1  UNL1       -0.3226
     30 O          23.3384   75.6331    1.5639 O.3     1  UNL1       -0.3794
     31 O          21.0366   74.6940    0.0388 O.3     1  UNL1       -0.3775
     32 O          23.8370   73.2946    2.9470 O.3     1  UNL1       -0.3792
     33 C          23.3031   74.3931    0.8629 C.3     1  UNL1        0.1718
     34 C          21.8727   73.8451    0.8180 C.3     1  UNL1        0.1968
     35 C          24.2238   73.3966    1.5726 C.3     1  UNL1        0.1723
     36 C          21.8504   72.4334    0.2187 C.3     1  UNL1        0.2706
     37 C          24.0911   72.0216    0.9215 C.3     1  UNL1        0.1830
     38 H          24.2608   75.9407    1.5696 H       1  UNL1        0.2105
     39 H          20.1468   74.3028    0.0315 H       1  UNL1        0.2106
     40 H          23.0101   72.7859    2.9982 H       1  UNL1        0.2106
     41 O          26.0136   71.5198    2.1689 O.co2   1  UNL1       -0.5466
     42 O          24.5400   69.8192    1.8034 O.co2   1  UNL1       -0.5466
     43 C          24.8750   70.9866    1.6640 C.2     1  UNL1        0.0799
@<TRIPOS>UNITY_ATOM_ATTR
41 1
charge -1
@<TRIPOS>BOND
     1     1     4    1
     2     1    24    1
     3     1     2    1
     4     1     3    2
     5    25    28    1
     6    25    24    1
     7    25    26    1
     8    25    27    2
     9     6    11    1
    10     6    12    1
    11    29    36    1
    12    29    37    1
    13     7     9    1
    14     7    13    1
    15     8    10    1
    16     8    14    1
    17     4     5    1
    18    28    36    1
    19    30    33    1
    20    30    38    1
    21    31    34    1
    22    31    39    1
    23    32    35    1
    24    32    40    1
    25    41    43   ar
    26    15    19    2
    27    42    43   ar
    28    16    22    2
    29    17    12    1
    30    17    19   ar
    31    17    20   ar
    32    18    19   ar
    33    18    22   ar
    34    18    23    1
    35     9    10    1
    36     9    11    1
    37    10    12    1
    38    11     5    1
    39    33    34    1
    40    33    35    1
    41    34    36    1
    42    35    37    1
    43    37    43    1
    44    20    21   ar
    45    21    22   ar
@<TRIPOS>MOLECULE
UDP-glaA
 43 45 0 0 0
SMALL
GASTEIGER

@<TRIPOS>ATOM
      1 P          23.7241   73.6971   -4.3545 P.3     1  UNL1        0.2189
      2 O          23.5207   74.9639   -5.3400 O.3     1  UNL1       -0.4371
      3 O          25.1041   73.5557   -3.7820 O.2     1  UNL1       -0.5170
      4 O          23.1902   72.4400   -5.2206 O.3     1  UNL1       -0.3112
      5 C          21.7927   72.2156   -5.2984 C.3     1  UNL1        0.1811
      6 O          20.3855   71.8658   -7.2145 O.3     1  UNL1       -0.3308
      7 O          20.4385   74.8435   -7.5634 O.3     1  UNL1       -0.3794
      8 O          18.0148   74.4250   -6.3859 O.3     1  UNL1       -0.3779
      9 C          20.4206   74.0753   -6.3604 C.3     1  UNL1        0.1713
     10 C          19.0430   73.4903   -6.1313 C.3     1  UNL1        0.1895
     11 C          21.2631   72.8270   -6.5877 C.3     1  UNL1        0.1764
     12 C          19.0282   72.3257   -7.1067 C.3     1  UNL1        0.2383
     13 H          21.3477   75.1646   -7.6888 H       1  UNL1        0.2105
     14 H          18.1590   75.1862   -5.7977 H       1  UNL1        0.2106
     15 O          17.4944   70.6721   -8.8063 O.2     1  UNL1       -0.2464
     16 O          15.8947   68.2007   -5.2606 O.2     1  UNL1       -0.2670
     17 N          18.2024   71.2426   -6.6549 N.ar    1  UNL1       -0.2551
     18 N          16.6984   69.4429   -7.0395 N.ar    1  UNL1       -0.2743
     19 C          17.4714   70.4736   -7.5903 C.ar    1  UNL1        0.3323
     20 C          18.1225   70.9514   -5.2976 C.ar    1  UNL1        0.0869
     21 C          17.3814   69.9650   -4.7882 C.ar    1  UNL1        0.0795
     22 C          16.5868   69.1153   -5.6972 C.ar    1  UNL1        0.2626
     23 H          16.1639   68.8773   -7.6934 H       1  UNL1        0.1734
     24 O          22.5564   73.9025   -3.2547 O.3     1  UNL1       -0.2703
     25 P          22.4779   74.8654   -1.9589 P.3     1  UNL1        0.2208
     26 O          20.9823   75.4758   -2.0402 O.3     1  UNL1       -0.4371
     27 O          23.5663   75.8982   -1.8921 O.2     1  UNL1       -0.5170
     28 O          22.4391   73.8556   -0.7008 O.3     1  UNL1       -0.2858
     29 O          24.2866   73.0626    0.5472 O.3     1  UNL1       -0.3226
     30 O          21.5459   69.9683    0.9868 O.3     1  UNL1       -0.3794
     31 O          21.8746   71.3020   -1.5859 O.3     1  UNL1       -0.3775
     32 O          24.0000   70.6412    2.0614 O.3     1  UNL1       -0.3792
     33 C          22.0238   71.3026    0.8398 C.3     1  UNL1        0.1718
     34 C          22.7693   71.4598   -0.4898 C.3     1  UNL1        0.1968
     35 C          22.9611   71.6243    2.0071 C.3     1  UNL1        0.1723
     36 C          23.4335   72.8393   -0.5804 C.3     1  UNL1        0.2706
     37 C          23.5946   72.9973    1.7931 C.3     1  UNL1        0.1830
     38 H          21.0842   69.9145    1.8409 H       1  UNL1        0.2105
     39 H          22.3881   71.4190   -2.4029 H       1  UNL1        0.2106
     40 H          24.6201   70.8064    1.3312 H       1  UNL1        0.2106
     41 O          24.0557   73.9706    3.8774 O.co2   1  UNL1       -0.5466
     42 O          25.7956   72.9818    2.7856 O.co2   1  UNL1       -0.5466
     43 C          24.6162   73.2982    2.8432 C.2     1  UNL1        0.0799
@<TRIPOS>UNITY_ATOM_ATTR
41 1
charge -1
@<TRIPOS>BOND
     1     1     4    1
     2     1    24    1
     3     1     2    1
     4     1     3    2
     5    25    28    1
     6    25    24    1
     7    25    26    1
     8    25    27    2
     9     6    11    1
    10     6    12    1
    11    29    36    1
    12    29    37    1
    13     7     9    1
    14     7    13    1
    15     8    10    1
    16     8    14    1
    17     4     5    1
    18    28    36    1
    19    30    33    1
    20    30    38    1
    21    31    34    1
    22    31    39    1
    23    32    35    1
    24    32    40    1
    25    41    43   ar
    26    15    19    2
    27    42    43   ar
    28    16    22    2
    29    17    12    1
    30    17    19   ar
    31    17    20   ar
    32    18    19   ar
    33    18    22   ar
    34    18    23    1
    35     9    10    1
    36     9    11    1
    37    10    12    1
    38    11     5    1
    39    33    34    1
    40    33    35    1
    41    34    36    1
    42    35    37    1
    43    37    43    1
    44    20    21   ar
    45    21    22   ar
@<TRIPOS>MOLECULE
UDP-glaA
 43 45 0 0 0
SMALL
GASTEIGER

@<TRIPOS>ATOM
      1 P          22.8134   73.0507   -3.8539 P.3     1  UNL1        0.2189
      2 O          24.1719   72.2064   -4.0971 O.3     1  UNL1       -0.4371
      3 O          22.9322   74.5261   -4.1015 O.2     1  UNL1       -0.5170
      4 O          22.3501   72.6229   -2.3646 O.3     1  UNL1       -0.3112
      5 C          23.3311   72.5537   -1.3437 C.3     1  UNL1        0.1811
      6 O          24.2194   71.1270    0.3738 O.3     1  UNL1       -0.3308
      7 O          21.4217   70.1010    0.7079 O.3     1  UNL1       -0.3794
      8 O          21.6681   71.8469    2.7881 O.3     1  UNL1       -0.3779
      9 C          21.8689   71.4219    0.4028 C.3     1  UNL1        0.1713
     10 C          22.4535   72.0766    1.6365 C.3     1  UNL1        0.1895
     11 C          23.0867   71.3075   -0.5047 C.3     1  UNL1        0.1764
     12 C          23.8219   71.4223    1.7229 C.3     1  UNL1        0.2383
     13 H          21.0924   69.7084   -0.1185 H       1  UNL1        0.2105
     14 H          20.7786   72.1981    2.6105 H       1  UNL1        0.2106
     15 O          26.4961   70.6741    2.2365 O.2     1  UNL1       -0.2464
     16 O          27.4990   74.8004    4.0271 O.2     1  UNL1       -0.2670
     17 N          24.8033   72.2811    2.3217 N.ar    1  UNL1       -0.2551
     18 N          26.9936   72.7292    3.1283 N.ar    1  UNL1       -0.2743
     19 C          26.1188   71.8080    2.5373 C.ar    1  UNL1        0.3323
     20 C          24.4586   73.5771    2.6891 C.ar    1  UNL1        0.0869
     21 C          25.3043   74.4435    3.2511 C.ar    1  UNL1        0.0795
     22 C          26.6969   74.0281    3.5113 C.ar    1  UNL1        0.2626
     23 H          27.9446   72.4106    3.2933 H       1  UNL1        0.1734
     24 O          21.7420   72.2932   -4.7991 O.3     1  UNL1       -0.2703
     25 P          20.6868   72.8700   -5.8792 P.3     1  UNL1        0.2208
     26 O          21.2312   72.2779   -7.2825 O.3     1  UNL1       -0.4371
     27 O          20.5342   74.3640   -5.8541 O.2     1  UNL1       -0.5170
     28 O          19.3232   72.0557   -5.5938 O.3     1  UNL1       -0.2858
     29 O          19.1169   69.9144   -4.6081 O.3     1  UNL1       -0.3226
     30 O          15.7467   70.0841   -7.0354 O.3     1  UNL1       -0.3794
     31 O          18.3070   71.1119   -7.9812 O.3     1  UNL1       -0.3775
     32 O          16.7315   68.3917   -5.0871 O.3     1  UNL1       -0.3792
     33 C          16.7826   70.5482   -6.1742 C.3     1  UNL1        0.1718
     34 C          18.1552   70.3117   -6.8134 C.3     1  UNL1        0.1968
     35 C          16.6900   69.8012   -4.8409 C.3     1  UNL1        0.1723
     36 C          19.2795   70.6485   -5.8261 C.3     1  UNL1        0.2706
     37 C          17.8758   70.1806   -3.9566 C.3     1  UNL1        0.1830
     38 H          14.8984   70.2513   -6.5905 H       1  UNL1        0.2105
     39 H          19.1913   70.9360   -8.3444 H       1  UNL1        0.2106
     40 H          17.6416   68.1463   -5.3248 H       1  UNL1        0.2106
     41 O          18.6516   69.9891   -1.7508 O.co2   1  UNL1       -0.5466
     42 O          17.3138   68.3156   -2.5298 O.co2   1  UNL1       -0.5466
     43 C          17.8970   69.3772   -2.6952 C.2     1  UNL1        0.0799
@<TRIPOS>UNITY_ATOM_ATTR
41 1
charge -1
@<TRIPOS>BOND
     1     1     4    1
     2     1    24    1
     3     1     2    1
     4     1     3    2
     5    25    28    1
     6    25    24    1
     7    25    26    1
     8    25    27    2
     9     6    11    1
    10     6    12    1
    11    29    36    1
    12    29    37    1
    13     7     9    1
    14     7    13    1
    15     8    10    1
    16     8    14    1
    17     4     5    1
    18    28    36    1
    19    30    33    1
    20    30    38    1
    21    31    34    1
    22    31    39    1
    23    32    35    1
    24    32    40    1
    25    41    43   ar
    26    15    19    2
    27    42    43   ar
    28    16    22    2
    29    17    12    1
    30    17    19   ar
    31    17    20   ar
    32    18    19   ar
    33    18    22   ar
    34    18    23    1
    35     9    10    1
    36     9    11    1
    37    10    12    1
    38    11     5    1
    39    33    34    1
    40    33    35    1
    41    34    36    1
    42    35    37    1
    43    37    43    1
    44    20    21   ar
    45    21    22   ar
