@<TRIPOS>MOLECULE
UD1
 46 48 0 0 0
SMALL
GASTEIGER

@<TRIPOS>ATOM
      1 P          22.1739   70.9488   -2.5898 P.3     1  UNL1        0.2189
      2 O          23.4651   70.6929   -3.2650 O.2     1  UNL1       -0.5170
      3 O          21.5880   69.5656   -2.0100 O.3     1  UNL1       -0.4371
      4 O          21.1305   71.5713   -3.6464 O.3     1  UNL1       -0.3112
      5 C          20.1490   72.2815   -2.8896 C.3     1  UNL1        0.1811
      6 C          17.9095   71.2733   -5.5155 C.3     1  UNL1        0.2383
      7 C          18.0211   70.0278   -4.6010 C.3     1  UNL1        0.1895
      8 O          16.8122   69.2680   -4.6225 O.3     1  UNL1       -0.3779
      9 C          18.2482   70.6671   -3.2064 C.3     1  UNL1        0.1713
     10 C          18.7716   72.0812   -3.5235 C.3     1  UNL1        0.1764
     11 O          18.8708   72.1919   -4.9536 O.3     1  UNL1       -0.3308
     12 O          17.0190   70.7328   -2.4800 O.3     1  UNL1       -0.3794
     13 H          16.9470   68.5104   -4.0365 H       1  UNL1        0.2106
     14 H          16.7133   69.8231   -2.3656 H       1  UNL1        0.2105
     15 N          18.2618   70.9377   -6.8956 N.ar    1  UNL1       -0.2551
     16 C          17.2945   70.6067   -7.7685 C.ar    1  UNL1        0.3323
     17 N          17.5891   70.2972   -9.0451 N.ar    1  UNL1       -0.2743
     18 C          18.8693   70.3056   -9.4682 C.ar    1  UNL1        0.2626
     19 C          19.8981   70.6464   -8.5581 C.ar    1  UNL1        0.0795
     20 C          19.5741   70.9578   -7.2848 C.ar    1  UNL1        0.0869
     21 O          16.1352   70.5947   -7.4020 O.2     1  UNL1       -0.2464
     22 O          19.1373   70.0213  -10.6210 O.2     1  UNL1       -0.2670
     23 H          16.8783   70.0654   -9.6625 H       1  UNL1        0.1734
     24 O          22.3969   71.9869   -1.3809 O.3     1  UNL1       -0.2703
     25 P          22.4887   71.1158   -0.0310 P.3     1  UNL1        0.2208
     26 O          23.5671   70.1118   -0.1644 O.2     1  UNL1       -0.5170
     27 O          21.0864   70.3659    0.2210 O.3     1  UNL1       -0.4371
     28 O          22.8086   72.0847    1.2137 O.3     1  UNL1       -0.2865
     29 C          22.0669   73.2876    1.0040 C.3     1  UNL1        0.2611
     30 C          23.0346   74.4693    0.9187 C.3     1  UNL1        0.1582
     31 C          23.8417   74.5510    2.2193 C.3     1  UNL1        0.1625
     32 C          22.8658   74.5914    3.4000 C.3     1  UNL1        0.1686
     33 C          21.9127   73.3986    3.2997 C.3     1  UNL1        0.1760
     34 O          24.6406   75.7356    2.2134 O.3     1  UNL1       -0.3801
     35 O          23.5959   74.5197    4.6261 O.3     1  UNL1       -0.3794
     36 O          21.1621   73.4817    2.0888 O.3     1  UNL1       -0.3263
     37 H          25.1303   75.7464    3.0473 H       1  UNL1        0.2105
     38 H          22.9447   74.5472    5.3415 H       1  UNL1        0.2105
     39 C          23.8466   75.0658   -1.2992 C.2     1  UNL1        0.2231
     40 C          24.7834   74.8667   -2.4633 C.3     1  UNL1        0.0946
     41 N          23.9448   74.2765   -0.2122 N.am    1  UNL1       -0.2994
     42 O          23.0037   75.9364   -1.3414 O.2     1  UNL1       -0.2751
     43 H          24.6191   73.5796   -0.1783 H       1  UNL1        0.1496
     44 C          20.9543   73.4114    4.4924 C.3     1  UNL1        0.1693
     45 O          21.6161   72.8785    5.6414 O.3     1  UNL1       -0.3794
     46 H          20.9791   72.9042    6.3682 H       1  UNL1        0.2105
@<TRIPOS>BOND
     1    29    30    1
     2    29    28    1
     3    29    36    1
     4    30    31    1
     5    30    41    1
     6    31    32    1
     7    31    34    1
     8    32    33    1
     9    32    35    1
    10    33    44    1
    11    33    36    1
    12    44    45    1
    13    39    40    1
    14    39    41   am
    15    39    42    2
    16    41    43    1
    17    28    25    1
    18    34    37    1
    19    35    38    1
    20    45    46    1
    21    15    16   ar
    22    15    20   ar
    23    15     6    1
    24    16    17   ar
    25    16    21    2
    26    17    18   ar
    27    17    23    1
    28    18    19   ar
    29    18    22    2
    30    19    20   ar
    31     6     7    1
    32     6    11    1
    33     7     8    1
    34     7     9    1
    35     8    13    1
    36     9    10    1
    37     9    12    1
    38    10    11    1
    39    10     5    1
    40    12    14    1
    41     5     4    1
    42     4     1    1
    43     1     2    2
    44     1     3    1
    45     1    24    1
    46    24    25    1
    47    25    26    2
    48    25    27    1
@<TRIPOS>MOLECULE
UD1
 46 48 0 0 0
SMALL
GASTEIGER

@<TRIPOS>ATOM
      1 P          21.8358   70.8022   -2.7302 P.3     1  UNL1        0.2189
      2 O          22.3825   71.4115   -3.9625 O.2     1  UNL1       -0.5170
      3 O          21.2889   69.3240   -3.0595 O.3     1  UNL1       -0.4371
      4 O          20.6269   71.7091   -2.1744 O.3     1  UNL1       -0.3112
      5 C          19.4198   71.1603   -2.7054 C.3     1  UNL1        0.1811
      6 C          18.1950   72.4296   -5.8385 C.3     1  UNL1        0.2383
      7 C          16.9793   71.7009   -5.2130 C.3     1  UNL1        0.1895
      8 O          15.7540   72.3168   -5.6111 O.3     1  UNL1       -0.3779
      9 C          17.2288   71.8956   -3.6948 C.3     1  UNL1        0.1713
     10 C          18.7369   72.1970   -3.5988 C.3     1  UNL1        0.1764
     11 O          19.2749   72.1254   -4.9302 O.3     1  UNL1       -0.3308
     12 O          16.4600   72.9934   -3.1981 O.3     1  UNL1       -0.3794
     13 H          15.0401   71.8179   -5.1904 H       1  UNL1        0.2106
     14 H          15.5304   72.7704   -3.3405 H       1  UNL1        0.2105
     15 N          18.4822   71.9076   -7.1751 N.ar    1  UNL1       -0.2551
     16 C          17.9129   70.7583   -7.5780 C.ar    1  UNL1        0.3323
     17 N          18.1559   70.2567   -8.8034 N.ar    1  UNL1       -0.2743
     18 C          18.9873   70.8995   -9.6481 C.ar    1  UNL1        0.2626
     19 C          19.5981   72.1073   -9.2345 C.ar    1  UNL1        0.0795
     20 C          19.3327   72.5908   -8.0020 C.ar    1  UNL1        0.0869
     21 O          17.1606   70.1670   -6.8276 O.2     1  UNL1       -0.2464
     22 O          19.2115   70.4444  -10.7544 O.2     1  UNL1       -0.2670
     23 H          17.7329   69.4290   -9.0792 H       1  UNL1        0.1734
     24 O          22.9940   70.7113   -1.6169 O.3     1  UNL1       -0.2703
     25 P          22.2768   70.8743   -0.1857 P.3     1  UNL1        0.2208
     26 O          23.2381   70.5409    0.8884 O.2     1  UNL1       -0.5170
     27 O          21.0131   69.8803   -0.1015 O.3     1  UNL1       -0.4371
     28 O          21.7759   72.3932   -0.0049 O.3     1  UNL1       -0.2865
     29 C          22.9213   73.1672    0.3561 C.3     1  UNL1        0.2611
     30 C          22.5035   74.2559    1.3461 C.3     1  UNL1        0.1582
     31 C          21.4350   75.1417    0.6956 C.3     1  UNL1        0.1625
     32 C          21.9714   75.6516   -0.6462 C.3     1  UNL1        0.1686
     33 C          22.4266   74.4571   -1.4873 C.3     1  UNL1        0.1760
     34 O          21.1450   76.2488    1.5510 O.3     1  UNL1       -0.3801
     35 O          20.9389   76.3581   -1.3364 O.3     1  UNL1       -0.3794
     36 O          23.4769   73.7651   -0.8132 O.3     1  UNL1       -0.3263
     37 H          20.4699   76.7778    1.1041 H       1  UNL1        0.2105
     38 H          21.3183   76.6602   -2.1738 H       1  UNL1        0.2105
     39 C          22.7282   73.4989    3.6506 C.2     1  UNL1        0.2231
     40 C          22.1654   72.8597    4.8944 C.3     1  UNL1        0.0946
     41 N          21.9570   73.6354    2.5547 N.am    1  UNL1       -0.2994
     42 O          23.8758   73.8898    3.6361 O.2     1  UNL1       -0.2751
     43 H          21.0386   73.3224    2.5660 H       1  UNL1        0.1496
     44 C          22.9342   74.9532   -2.8427 C.3     1  UNL1        0.1693
     45 O          23.7762   73.9588   -3.4295 O.3     1  UNL1       -0.3794
     46 H          24.0741   74.3104   -4.2794 H       1  UNL1        0.2105
@<TRIPOS>BOND
     1    29    30    1
     2    29    28    1
     3    29    36    1
     4    30    31    1
     5    30    41    1
     6    31    32    1
     7    31    34    1
     8    32    33    1
     9    32    35    1
    10    33    44    1
    11    33    36    1
    12    44    45    1
    13    39    40    1
    14    39    41   am
    15    39    42    2
    16    41    43    1
    17    28    25    1
    18    34    37    1
    19    35    38    1
    20    45    46    1
    21    15    16   ar
    22    15    20   ar
    23    15     6    1
    24    16    17   ar
    25    16    21    2
    26    17    18   ar
    27    17    23    1
    28    18    19   ar
    29    18    22    2
    30    19    20   ar
    31     6     7    1
    32     6    11    1
    33     7     8    1
    34     7     9    1
    35     8    13    1
    36     9    10    1
    37     9    12    1
    38    10    11    1
    39    10     5    1
    40    12    14    1
    41     5     4    1
    42     4     1    1
    43     1     2    2
    44     1     3    1
    45     1    24    1
    46    24    25    1
    47    25    26    2
    48    25    27    1
@<TRIPOS>MOLECULE
UD1
 46 48 0 0 0
SMALL
GASTEIGER

@<TRIPOS>ATOM
      1 P          21.9153   70.4764   -0.3002 P.3     1  UNL1        0.2189
      2 O          22.7440   71.5220   -0.9394 O.2     1  UNL1       -0.5170
      3 O          22.8437   69.2203    0.0909 O.3     1  UNL1       -0.4371
      4 O          20.7707   69.9975   -1.3266 O.3     1  UNL1       -0.3112
      5 C          20.9248   70.7790   -2.5123 C.3     1  UNL1        0.1811
      6 C          18.3908   71.0775   -5.0454 C.3     1  UNL1        0.2383
      7 C          18.0788   69.7335   -4.3407 C.3     1  UNL1        0.1895
      8 O          16.6781   69.4563   -4.3657 O.3     1  UNL1       -0.3779
      9 C          18.5635   70.0048   -2.8928 C.3     1  UNL1        0.1713
     10 C          19.5474   71.1813   -3.0416 C.3     1  UNL1        0.1764
     11 O          19.6342   71.4942   -4.4423 O.3     1  UNL1       -0.3308
     12 O          17.4627   70.3676   -2.0564 O.3     1  UNL1       -0.3794
     13 H          16.5518   68.6105   -3.9139 H       1  UNL1        0.2106
     14 H          16.8558   69.6154   -2.0517 H       1  UNL1        0.2105
     15 N          18.5559   70.8824   -6.4863 N.ar    1  UNL1       -0.2551
     16 C          17.4724   70.8344   -7.2807 C.ar    1  UNL1        0.3323
     17 N          17.5946   70.6600   -8.6099 N.ar    1  UNL1       -0.2743
     18 C          18.8142   70.5204   -9.1676 C.ar    1  UNL1        0.2626
     19 C          19.9630   70.5630   -8.3422 C.ar    1  UNL1        0.0795
     20 C          19.8119   70.7444   -7.0127 C.ar    1  UNL1        0.0869
     21 O          16.3656   70.9588   -6.7925 O.2     1  UNL1       -0.2464
     22 O          18.9256   70.3579  -10.3687 O.2     1  UNL1       -0.2670
     23 H          16.8024   70.6327   -9.1684 H       1  UNL1        0.1734
     24 O          21.2297   71.0723    1.0279 O.3     1  UNL1       -0.2703
     25 P          21.7252   72.5973    1.1626 P.3     1  UNL1        0.2208
     26 O          20.7092   73.4995    0.5771 O.2     1  UNL1       -0.5170
     27 O          23.1198   72.7805    0.3791 O.3     1  UNL1       -0.4371
     28 O          21.9329   72.9601    2.7169 O.3     1  UNL1       -0.2865
     29 C          21.7193   74.3668    2.8463 C.3     1  UNL1        0.2611
     30 C          22.9712   75.0153    3.4396 C.3     1  UNL1        0.1582
     31 C          23.2630   74.3843    4.8058 C.3     1  UNL1        0.1625
     32 C          22.0030   74.4863    5.6719 C.3     1  UNL1        0.1686
     33 C          20.8245   73.8748    4.9112 C.3     1  UNL1        0.1760
     34 O          24.3388   75.0824    5.4357 O.3     1  UNL1       -0.3801
     35 O          22.2049   73.7754    6.8948 O.3     1  UNL1       -0.3794
     36 O          20.6028   74.5998    3.7022 O.3     1  UNL1       -0.3263
     37 H          24.4885   74.6533    6.2894 H       1  UNL1        0.2105
     38 H          21.3893   73.8646    7.4081 H       1  UNL1        0.2105
     39 C          24.6410   75.8268    1.8624 C.2     1  UNL1        0.2231
     40 C          25.8116   75.5987    0.9404 C.3     1  UNL1        0.0946
     41 N          24.1087   74.7943    2.5442 N.am    1  UNL1       -0.2994
     42 O          24.1778   76.9400    1.9901 O.2     1  UNL1       -0.2751
     43 H          24.4791   73.9033    2.4420 H       1  UNL1        0.1496
     44 C          19.5675   73.9424    5.7809 C.3     1  UNL1        0.1693
     45 O          19.7105   74.9874    6.7451 O.3     1  UNL1       -0.3794
     46 H          18.8994   74.9956    7.2712 H       1  UNL1        0.2105
@<TRIPOS>BOND
     1    29    30    1
     2    29    28    1
     3    29    36    1
     4    30    31    1
     5    30    41    1
     6    31    32    1
     7    31    34    1
     8    32    33    1
     9    32    35    1
    10    33    44    1
    11    33    36    1
    12    44    45    1
    13    39    40    1
    14    39    41   am
    15    39    42    2
    16    41    43    1
    17    28    25    1
    18    34    37    1
    19    35    38    1
    20    45    46    1
    21    15    16   ar
    22    15    20   ar
    23    15     6    1
    24    16    17   ar
    25    16    21    2
    26    17    18   ar
    27    17    23    1
    28    18    19   ar
    29    18    22    2
    30    19    20   ar
    31     6     7    1
    32     6    11    1
    33     7     8    1
    34     7     9    1
    35     8    13    1
    36     9    10    1
    37     9    12    1
    38    10    11    1
    39    10     5    1
    40    12    14    1
    41     5     4    1
    42     4     1    1
    43     1     2    2
    44     1     3    1
    45     1    24    1
    46    24    25    1
    47    25    26    2
    48    25    27    1
@<TRIPOS>MOLECULE
UD1
 46 48 0 0 0
SMALL
GASTEIGER

@<TRIPOS>ATOM
      1 P          21.7831   70.3436   -0.5096 P.3     1  UNL1        0.2189
      2 O          23.1086   70.8342   -0.9467 O.2     1  UNL1       -0.5170
      3 O          21.9749   69.2203    0.6280 O.3     1  UNL1       -0.4371
      4 O          21.0063   69.7051   -1.7673 O.3     1  UNL1       -0.3112
      5 C          21.0995   70.6501   -2.8344 C.3     1  UNL1        0.1811
      6 C          18.4793   70.9118   -5.2825 C.3     1  UNL1        0.2383
      7 C          18.2293   69.5483   -4.5906 C.3     1  UNL1        0.1895
      8 O          16.8373   69.2298   -4.5767 O.3     1  UNL1       -0.3779
      9 C          18.7511   69.8116   -3.1541 C.3     1  UNL1        0.1713
     10 C          19.6949   71.0192   -3.3141 C.3     1  UNL1        0.1764
     11 O          19.7283   71.3561   -4.7115 O.3     1  UNL1       -0.3308
     12 O          17.6671   70.1283   -2.2782 O.3     1  UNL1       -0.3794
     13 H          16.7502   68.3737   -4.1351 H       1  UNL1        0.2106
     14 H          17.0830   69.3583   -2.2670 H       1  UNL1        0.2105
     15 N          18.6046   70.7440   -6.7308 N.ar    1  UNL1       -0.2551
     16 C          17.4985   70.6739   -7.4917 C.ar    1  UNL1        0.3323
     17 N          17.5839   70.5237   -8.8267 N.ar    1  UNL1       -0.2743
     18 C          18.7890   70.4314   -9.4244 C.ar    1  UNL1        0.2626
     19 C          19.9615   70.4977   -8.6347 C.ar    1  UNL1        0.0795
     20 C          19.8471   70.6540   -7.2984 C.ar    1  UNL1        0.0869
     21 O          16.4044   70.7557   -6.9673 O.2     1  UNL1       -0.2464
     22 O          18.8673   70.2908  -10.6309 O.2     1  UNL1       -0.2670
     23 H          16.7757   70.4798   -9.3607 H       1  UNL1        0.1734
     24 O          20.9263   71.5693    0.0842 O.3     1  UNL1       -0.2703
     25 P          21.8773   72.3376    1.1303 P.3     1  UNL1        0.2208
     26 O          22.9400   73.0572    0.3943 O.2     1  UNL1       -0.5170
     27 O          22.5478   71.2698    2.1316 O.3     1  UNL1       -0.4371
     28 O          21.0041   73.3910    1.9779 O.3     1  UNL1       -0.2865
     29 C          21.3635   74.6942    1.5155 C.3     1  UNL1        0.2611
     30 C          21.4394   75.6499    2.7075 C.3     1  UNL1        0.1582
     31 C          20.0783   75.6819    3.4117 C.3     1  UNL1        0.1625
     32 C          18.9986   76.0150    2.3766 C.3     1  UNL1        0.1686
     33 C          19.1050   75.0297    1.2108 C.3     1  UNL1        0.1760
     34 O          20.0911   76.6805    4.4335 O.3     1  UNL1       -0.3801
     35 O          17.7081   75.9061    2.9801 O.3     1  UNL1       -0.3794
     36 O          20.3830   75.1553    0.5885 O.3     1  UNL1       -0.3263
     37 H          19.2182   76.6659    4.8495 H       1  UNL1        0.2105
     38 H          17.0597   76.1227    2.2951 H       1  UNL1        0.2105
     39 C          22.1280   74.3778    4.6677 C.2     1  UNL1        0.2231
     40 C          23.1842   73.9001    5.6312 C.3     1  UNL1        0.0946
     41 N          22.4652   75.1851    3.6435 N.am    1  UNL1       -0.2994
     42 O          20.9740   74.0360    4.8147 O.2     1  UNL1       -0.2751
     43 H          23.3886   75.4590    3.5258 H       1  UNL1        0.1496
     44 C          18.0099   75.3336    0.1863 C.3     1  UNL1        0.1693
     45 O          18.2278   76.6299   -0.3741 O.3     1  UNL1       -0.3794
     46 H          17.5178   76.7818   -1.0124 H       1  UNL1        0.2105
@<TRIPOS>BOND
     1    29    30    1
     2    29    28    1
     3    29    36    1
     4    30    31    1
     5    30    41    1
     6    31    32    1
     7    31    34    1
     8    32    33    1
     9    32    35    1
    10    33    44    1
    11    33    36    1
    12    44    45    1
    13    39    40    1
    14    39    41   am
    15    39    42    2
    16    41    43    1
    17    28    25    1
    18    34    37    1
    19    35    38    1
    20    45    46    1
    21    15    16   ar
    22    15    20   ar
    23    15     6    1
    24    16    17   ar
    25    16    21    2
    26    17    18   ar
    27    17    23    1
    28    18    19   ar
    29    18    22    2
    30    19    20   ar
    31     6     7    1
    32     6    11    1
    33     7     8    1
    34     7     9    1
    35     8    13    1
    36     9    10    1
    37     9    12    1
    38    10    11    1
    39    10     5    1
    40    12    14    1
    41     5     4    1
    42     4     1    1
    43     1     2    2
    44     1     3    1
    45     1    24    1
    46    24    25    1
    47    25    26    2
    48    25    27    1
@<TRIPOS>MOLECULE
UD1
 46 48 0 0 0
SMALL
GASTEIGER

@<TRIPOS>ATOM
      1 P          22.8753   71.5253   -2.5802 P.3     1  UNL1        0.2189
      2 O          23.4996   70.3402   -3.2082 O.2     1  UNL1       -0.5170
      3 O          23.6367   72.8565   -3.0709 O.3     1  UNL1       -0.4371
      4 O          22.9865   71.4043   -0.9784 O.3     1  UNL1       -0.3112
      5 C          21.6770   71.6298   -0.4543 C.3     1  UNL1        0.1811
      6 C          21.5475   74.3450    1.8991 C.3     1  UNL1        0.2383
      7 C          23.0326   74.2800    1.4628 C.3     1  UNL1        0.1895
      8 O          23.6341   75.5745    1.5022 O.3     1  UNL1       -0.3779
      9 C          22.9212   73.7657    0.0039 C.3     1  UNL1        0.1713
     10 C          21.5333   73.0987   -0.0529 C.3     1  UNL1        0.1764
     11 O          20.9575   73.1924    1.2612 O.3     1  UNL1       -0.3308
     12 O          22.9980   74.8552   -0.9179 O.3     1  UNL1       -0.3794
     13 H          24.5532   75.4651    1.2214 H       1  UNL1        0.2106
     14 H          23.8633   75.2669   -0.7922 H       1  UNL1        0.2105
     15 N          21.4288   74.2467    3.3543 N.ar    1  UNL1       -0.2551
     16 C          21.7293   73.0904    3.9707 C.ar    1  UNL1        0.3323
     17 N          21.6331   72.9725    5.3083 N.ar    1  UNL1       -0.2743
     18 C          21.2220   74.0175    6.0546 C.ar    1  UNL1        0.2626
     19 C          20.8968   75.2389    5.4180 C.ar    1  UNL1        0.0795
     20 C          21.0073   75.3312    4.0754 C.ar    1  UNL1        0.0869
     21 O          22.1015   72.1390    3.3113 O.2     1  UNL1       -0.2464
     22 O          21.1301   73.9106    7.2636 O.2     1  UNL1       -0.2670
     23 H          21.8584   72.1324    5.7367 H       1  UNL1        0.1734
     24 O          21.3256   71.6045   -3.0058 O.3     1  UNL1       -0.2703
     25 P          21.2135   72.7359   -4.1445 P.3     1  UNL1        0.2208
     26 O          22.3232   72.5756   -5.1099 O.2     1  UNL1       -0.5170
     27 O          21.3008   74.1929   -3.4649 O.3     1  UNL1       -0.4371
     28 O          19.8075   72.5875   -4.9137 O.3     1  UNL1       -0.2865
     29 C          20.0194   71.6748   -5.9922 C.3     1  UNL1        0.2611
     30 C          19.5256   72.3080   -7.2942 C.3     1  UNL1        0.1582
     31 C          18.0367   72.6446   -7.1547 C.3     1  UNL1        0.1625
     32 C          17.2873   71.3810   -6.7190 C.3     1  UNL1        0.1686
     33 C          17.9482   70.8194   -5.4584 C.3     1  UNL1        0.1760
     34 O          17.5285   73.0976   -8.4109 O.3     1  UNL1       -0.3801
     35 O          15.9239   71.7058   -6.4413 O.3     1  UNL1       -0.3794
     36 O          19.3025   70.4682   -5.7397 O.3     1  UNL1       -0.3263
     37 H          16.5918   73.2978   -8.2775 H       1  UNL1        0.2105
     38 H          15.4901   70.8842   -6.1705 H       1  UNL1        0.2105
     39 C          21.0742   73.6133   -8.6479 C.2     1  UNL1        0.2231
     40 C          21.8535   74.8741   -8.9220 C.3     1  UNL1        0.0946
     41 N          20.2826   73.5328   -7.5611 N.am    1  UNL1       -0.2994
     42 O          21.1602   72.6706   -9.4056 O.2     1  UNL1       -0.2751
     43 H          20.2137   74.2870   -6.9545 H       1  UNL1        0.1496
     44 C          17.1871   69.5751   -4.9963 C.3     1  UNL1        0.1693
     45 O          17.5287   69.2838   -3.6396 O.3     1  UNL1       -0.3794
     46 H          17.0292   68.4951   -3.3884 H       1  UNL1        0.2105
@<TRIPOS>BOND
     1    29    30    1
     2    29    28    1
     3    29    36    1
     4    30    31    1
     5    30    41    1
     6    31    32    1
     7    31    34    1
     8    32    33    1
     9    32    35    1
    10    33    44    1
    11    33    36    1
    12    44    45    1
    13    39    40    1
    14    39    41   am
    15    39    42    2
    16    41    43    1
    17    28    25    1
    18    34    37    1
    19    35    38    1
    20    45    46    1
    21    15    16   ar
    22    15    20   ar
    23    15     6    1
    24    16    17   ar
    25    16    21    2
    26    17    18   ar
    27    17    23    1
    28    18    19   ar
    29    18    22    2
    30    19    20   ar
    31     6     7    1
    32     6    11    1
    33     7     8    1
    34     7     9    1
    35     8    13    1
    36     9    10    1
    37     9    12    1
    38    10    11    1
    39    10     5    1
    40    12    14    1
    41     5     4    1
    42     4     1    1
    43     1     2    2
    44     1     3    1
    45     1    24    1
    46    24    25    1
    47    25    26    2
    48    25    27    1
@<TRIPOS>MOLECULE
UD1
 46 48 0 0 0
SMALL
GASTEIGER

@<TRIPOS>ATOM
      1 P          22.1247   70.8210   -2.6838 P.3     1  UNL1        0.2189
      2 O          21.2495   69.9813   -3.5309 O.2     1  UNL1       -0.5170
      3 O          23.6454   70.7020   -3.1997 O.3     1  UNL1       -0.4371
      4 O          22.0362   70.3175   -1.1569 O.3     1  UNL1       -0.3112
      5 C          22.6195   71.3409   -0.3491 C.3     1  UNL1        0.1811
      6 C          21.4428   73.4137    2.3428 C.3     1  UNL1        0.2383
      7 C          21.4214   74.3404    1.1014 C.3     1  UNL1        0.1895
      8 O          20.3828   75.3146    1.2086 O.3     1  UNL1       -0.3779
      9 C          21.1259   73.3403   -0.0465 C.3     1  UNL1        0.1713
     10 C          21.5409   71.9736    0.5317 C.3     1  UNL1        0.1764
     11 O          22.0616   72.2057    1.8516 O.3     1  UNL1       -0.3308
     12 O          19.7346   73.3509   -0.3734 O.3     1  UNL1       -0.3794
     13 H          20.4238   75.8569    0.4088 H       1  UNL1        0.2106
     14 H          19.5244   74.2460   -0.6711 H       1  UNL1        0.2105
     15 N          22.2425   74.0032    3.4173 N.ar    1  UNL1       -0.2551
     16 C          21.6482   74.7759    4.3431 C.ar    1  UNL1        0.3323
     17 N          22.3583   75.3278    5.3448 N.ar    1  UNL1       -0.2743
     18 C          23.6878   75.1199    5.4300 C.ar    1  UNL1        0.2626
     19 C          24.3271   74.3134    4.4587 C.ar    1  UNL1        0.0795
     20 C          23.5900   73.7677    3.4676 C.ar    1  UNL1        0.0869
     21 O          20.4499   74.9727    4.2797 O.2     1  UNL1       -0.2464
     22 O          24.3316   75.6223    6.3325 O.2     1  UNL1       -0.2670
     23 H          21.9125   75.8786    6.0066 H       1  UNL1        0.1734
     24 O          21.6457   72.3545   -2.7716 O.3     1  UNL1       -0.2703
     25 P          22.4058   73.0076   -4.0306 P.3     1  UNL1        0.2208
     26 O          23.7869   72.4816   -4.0999 O.2     1  UNL1       -0.5170
     27 O          22.4498   74.6080   -3.8606 O.3     1  UNL1       -0.4371
     28 O          21.6210   72.6347   -5.3854 O.3     1  UNL1       -0.2865
     29 C          20.8833   73.7962   -5.7701 C.3     1  UNL1        0.2611
     30 C          19.5921   73.3660   -6.4685 C.3     1  UNL1        0.1582
     31 C          19.9446   72.5178   -7.6956 C.3     1  UNL1        0.1625
     32 C          20.9275   73.3044   -8.5693 C.3     1  UNL1        0.1686
     33 C          22.1196   73.7366   -7.7129 C.3     1  UNL1        0.1760
     34 O          18.7578   72.2353   -8.4394 O.3     1  UNL1       -0.3801
     35 O          21.3824   72.4764   -9.6412 O.3     1  UNL1       -0.3794
     36 O          21.6721   74.5862   -6.6573 O.3     1  UNL1       -0.3263
     37 H          19.0252   71.7011   -9.2000 H       1  UNL1        0.2105
     38 H          21.9980   73.0092  -10.1643 H       1  UNL1        0.2105
     39 C          18.8176   71.2309   -5.5877 C.2     1  UNL1        0.2231
     40 C          17.9760   70.4187   -4.6368 C.3     1  UNL1        0.0946
     41 N          18.7750   72.5765   -5.5446 N.am    1  UNL1       -0.2994
     42 O          19.5329   70.6730   -6.3922 O.2     1  UNL1       -0.2751
     43 H          18.2025   73.0232   -4.9010 H       1  UNL1        0.1496
     44 C          23.1231   74.4953   -8.5838 C.3     1  UNL1        0.1693
     45 O          22.4191   75.2897   -9.5406 O.3     1  UNL1       -0.3794
     46 H          23.0863   75.7498  -10.0676 H       1  UNL1        0.2105
@<TRIPOS>BOND
     1    29    30    1
     2    29    28    1
     3    29    36    1
     4    30    31    1
     5    30    41    1
     6    31    32    1
     7    31    34    1
     8    32    33    1
     9    32    35    1
    10    33    44    1
    11    33    36    1
    12    44    45    1
    13    39    40    1
    14    39    41   am
    15    39    42    2
    16    41    43    1
    17    28    25    1
    18    34    37    1
    19    35    38    1
    20    45    46    1
    21    15    16   ar
    22    15    20   ar
    23    15     6    1
    24    16    17   ar
    25    16    21    2
    26    17    18   ar
    27    17    23    1
    28    18    19   ar
    29    18    22    2
    30    19    20   ar
    31     6     7    1
    32     6    11    1
    33     7     8    1
    34     7     9    1
    35     8    13    1
    36     9    10    1
    37     9    12    1
    38    10    11    1
    39    10     5    1
    40    12    14    1
    41     5     4    1
    42     4     1    1
    43     1     2    2
    44     1     3    1
    45     1    24    1
    46    24    25    1
    47    25    26    2
    48    25    27    1
@<TRIPOS>MOLECULE
UD1
 46 48 0 0 0
SMALL
GASTEIGER

@<TRIPOS>ATOM
      1 P          22.7842   71.9448   -3.3526 P.3     1  UNL1        0.2189
      2 O          23.3496   70.6315   -2.9723 O.2     1  UNL1       -0.5170
      3 O          23.9083   72.8141   -4.1098 O.3     1  UNL1       -0.4371
      4 O          22.3049   72.7258   -2.0285 O.3     1  UNL1       -0.3112
      5 C          22.2809   71.7681   -0.9690 C.3     1  UNL1        0.1811
      6 C          22.1246   73.6589    2.0851 C.3     1  UNL1        0.2383
      7 C          21.7750   74.6829    0.9763 C.3     1  UNL1        0.1895
      8 O          20.8815   75.6828    1.4672 O.3     1  UNL1       -0.3779
      9 C          21.0782   73.7902   -0.0833 C.3     1  UNL1        0.1713
     10 C          21.5690   72.3669    0.2450 C.3     1  UNL1        0.1764
     11 O          22.4865   72.4724    1.3470 O.3     1  UNL1       -0.3308
     12 O          19.6574   73.8784    0.0444 O.3     1  UNL1       -0.3794
     13 H          20.7049   76.2860    0.7321 H       1  UNL1        0.2106
     14 H          19.4196   74.8018   -0.1133 H       1  UNL1        0.2105
     15 N          23.2522   74.1299    2.8902 N.ar    1  UNL1       -0.2551
     16 C          23.3613   73.7448    4.1736 C.ar    1  UNL1        0.3323
     17 N          24.3901   74.1594    4.9366 N.ar    1  UNL1       -0.2743
     18 C          25.3285   74.9806    4.4239 C.ar    1  UNL1        0.2626
     19 C          25.2226   75.3985    3.0759 C.ar    1  UNL1        0.0795
     20 C          24.1834   74.9633    2.3316 C.ar    1  UNL1        0.0869
     21 O          22.5229   73.0043    4.6503 O.2     1  UNL1       -0.2464
     22 O          26.2565   75.3598    5.1142 O.2     1  UNL1       -0.2670
     23 H          24.4556   73.8679    5.8590 H       1  UNL1        0.1734
     24 O          21.5257   71.7245   -4.3306 O.3     1  UNL1       -0.2703
     25 P          21.5242   72.9528   -5.3700 P.3     1  UNL1        0.2208
     26 O          22.7515   72.9026   -6.1947 O.2     1  UNL1       -0.5170
     27 O          21.4799   74.3430   -4.5591 O.3     1  UNL1       -0.4371
     28 O          20.2321   72.8484   -6.3241 O.3     1  UNL1       -0.2865
     29 C          20.2220   71.5262   -6.8650 C.3     1  UNL1        0.2611
     30 C          20.1817   71.6055   -8.3922 C.3     1  UNL1        0.1582
     31 C          18.9274   72.3752   -8.8211 C.3     1  UNL1        0.1625
     32 C          17.7043   71.7212   -8.1696 C.3     1  UNL1        0.1686
     33 C          17.9303   71.6359   -6.6587 C.3     1  UNL1        0.1760
     34 O          18.7994   72.3276  -10.2433 O.3     1  UNL1       -0.3801
     35 O          16.5423   72.5086   -8.4368 O.3     1  UNL1       -0.3794
     36 O          19.0745   70.8274   -6.3872 O.3     1  UNL1       -0.3263
     37 H          17.9999   72.8230  -10.4686 H       1  UNL1        0.2105
     38 H          15.7977   72.0624   -8.0090 H       1  UNL1        0.2105
     39 C          21.3438   73.6333   -9.0793 C.2     1  UNL1        0.2231
     40 C          22.5720   74.3494   -9.5801 C.3     1  UNL1        0.0946
     41 N          21.3747   72.3018   -8.8782 N.am    1  UNL1       -0.2994
     42 O          20.3271   74.2557   -8.8578 O.2     1  UNL1       -0.2751
     43 H          22.1881   71.8034   -9.0556 H       1  UNL1        0.1496
     44 C          16.7003   71.0136   -5.9946 C.3     1  UNL1        0.1693
     45 O          16.1540   70.0080   -6.8504 O.3     1  UNL1       -0.3794
     46 H          15.3830   69.6425   -6.3960 H       1  UNL1        0.2105
@<TRIPOS>BOND
     1    29    30    1
     2    29    28    1
     3    29    36    1
     4    30    31    1
     5    30    41    1
     6    31    32    1
     7    31    34    1
     8    32    33    1
     9    32    35    1
    10    33    44    1
    11    33    36    1
    12    44    45    1
    13    39    40    1
    14    39    41   am
    15    39    42    2
    16    41    43    1
    17    28    25    1
    18    34    37    1
    19    35    38    1
    20    45    46    1
    21    15    16   ar
    22    15    20   ar
    23    15     6    1
    24    16    17   ar
    25    16    21    2
    26    17    18   ar
    27    17    23    1
    28    18    19   ar
    29    18    22    2
    30    19    20   ar
    31     6     7    1
    32     6    11    1
    33     7     8    1
    34     7     9    1
    35     8    13    1
    36     9    10    1
    37     9    12    1
    38    10    11    1
    39    10     5    1
    40    12    14    1
    41     5     4    1
    42     4     1    1
    43     1     2    2
    44     1     3    1
    45     1    24    1
    46    24    25    1
    47    25    26    2
    48    25    27    1
@<TRIPOS>MOLECULE
UD1
 46 48 0 0 0
SMALL
GASTEIGER

@<TRIPOS>ATOM
      1 P          22.9636   72.3002   -3.5837 P.3     1  UNL1        0.2189
      2 O          23.3625   70.9289   -3.1976 O.2     1  UNL1       -0.5170
      3 O          24.2685   73.1353   -4.0224 O.3     1  UNL1       -0.4371
      4 O          22.2591   73.0264   -2.3310 O.3     1  UNL1       -0.3112
      5 C          22.7235   72.3639   -1.1538 C.3     1  UNL1        0.1811
      6 C          21.5962   73.5035    2.0645 C.3     1  UNL1        0.2383
      7 C          21.1853   74.6330    1.0870 C.3     1  UNL1        0.1895
      8 O          20.0000   75.2912    1.5355 O.3     1  UNL1       -0.3779
      9 C          20.9202   73.8485   -0.2242 C.3     1  UNL1        0.1713
     10 C          21.6945   72.5298   -0.0345 C.3     1  UNL1        0.1764
     11 O          22.3622   72.6027    1.2367 O.3     1  UNL1       -0.3308
     12 O          19.5222   73.5969   -0.3829 O.3     1  UNL1       -0.3794
     13 H          19.7994   75.9799    0.8867 H       1  UNL1        0.2106
     14 H          19.0877   74.4586   -0.4358 H       1  UNL1        0.2105
     15 N          22.4204   74.0321    3.1521 N.ar    1  UNL1       -0.2551
     16 C          23.5437   74.7131    2.8663 C.ar    1  UNL1        0.3323
     17 N          24.3189   75.2139    3.8463 N.ar    1  UNL1       -0.2743
     18 C          23.9828   75.0309    5.1391 C.ar    1  UNL1        0.2626
     19 C          22.8060   74.3107    5.4543 C.ar    1  UNL1        0.0795
     20 C          22.0439   73.8238    4.4515 C.ar    1  UNL1        0.0869
     21 O          23.8602   74.8866    1.7051 O.2     1  UNL1       -0.2464
     22 O          24.6855   75.4791    6.0261 O.2     1  UNL1       -0.2670
     23 H          25.1233   75.7067    3.6218 H       1  UNL1        0.1734
     24 O          21.9300   72.2319   -4.8149 O.3     1  UNL1       -0.2703
     25 P          20.5301   71.7090   -4.2182 P.3     1  UNL1        0.2208
     26 O          19.9882   72.7149   -3.2782 O.2     1  UNL1       -0.5170
     27 O          20.7633   70.3191   -3.4398 O.3     1  UNL1       -0.4371
     28 O          19.4848   71.4802   -5.4204 O.3     1  UNL1       -0.2865
     29 C          19.7664   72.4725   -6.4090 C.3     1  UNL1        0.2611
     30 C          18.5567   73.3972   -6.5554 C.3     1  UNL1        0.1582
     31 C          17.3347   72.5640   -6.9578 C.3     1  UNL1        0.1625
     32 C          17.6870   71.7487   -8.2065 C.3     1  UNL1        0.1686
     33 C          18.9609   70.9458   -7.9345 C.3     1  UNL1        0.1760
     34 O          16.2361   73.4320   -7.2429 O.3     1  UNL1       -0.3801
     35 O          16.6141   70.8561   -8.5130 O.3     1  UNL1       -0.3794
     36 O          20.0410   71.8355   -7.6549 O.3     1  UNL1       -0.3263
     37 H          15.4910   72.8674   -7.4906 H       1  UNL1        0.2105
     38 H          16.8774   70.3632   -9.3030 H       1  UNL1        0.2105
     39 C          18.4122   75.4057   -5.1846 C.2     1  UNL1        0.2231
     40 C          18.1433   76.0950   -3.8712 C.3     1  UNL1        0.0946
     41 N          18.2951   74.0673   -5.2799 N.am    1  UNL1       -0.2994
     42 O          18.7346   76.0561   -6.1557 O.2     1  UNL1       -0.2751
     43 H          18.0373   73.5465   -4.5028 H       1  UNL1        0.1496
     44 C          19.3034   70.1028   -9.1646 C.3     1  UNL1        0.1693
     45 O          18.8006   70.7452  -10.3378 O.3     1  UNL1       -0.3794
     46 H          19.0368   70.1828  -11.0878 H       1  UNL1        0.2105
@<TRIPOS>BOND
     1    29    30    1
     2    29    28    1
     3    29    36    1
     4    30    31    1
     5    30    41    1
     6    31    32    1
     7    31    34    1
     8    32    33    1
     9    32    35    1
    10    33    44    1
    11    33    36    1
    12    44    45    1
    13    39    40    1
    14    39    41   am
    15    39    42    2
    16    41    43    1
    17    28    25    1
    18    34    37    1
    19    35    38    1
    20    45    46    1
    21    15    16   ar
    22    15    20   ar
    23    15     6    1
    24    16    17   ar
    25    16    21    2
    26    17    18   ar
    27    17    23    1
    28    18    19   ar
    29    18    22    2
    30    19    20   ar
    31     6     7    1
    32     6    11    1
    33     7     8    1
    34     7     9    1
    35     8    13    1
    36     9    10    1
    37     9    12    1
    38    10    11    1
    39    10     5    1
    40    12    14    1
    41     5     4    1
    42     4     1    1
    43     1     2    2
    44     1     3    1
    45     1    24    1
    46    24    25    1
    47    25    26    2
    48    25    27    1
@<TRIPOS>MOLECULE
UD1
 46 48 0 0 0
SMALL
GASTEIGER

@<TRIPOS>ATOM
      1 P          20.3123   70.2415   -2.7555 P.3     1  UNL1        0.2189
      2 O          19.4516   69.1618   -2.2243 O.2     1  UNL1       -0.5170
      3 O          19.8577   71.6506   -2.1227 O.3     1  UNL1       -0.4371
      4 O          20.1680   70.3027   -4.3581 O.3     1  UNL1       -0.3112
      5 C          18.8017   70.0173   -4.6618 C.3     1  UNL1        0.1811
      6 C          18.8173   72.6821   -7.0755 C.3     1  UNL1        0.2383
      7 C          18.2057   71.4765   -7.8323 C.3     1  UNL1        0.1895
      8 O          17.2698   71.9134   -8.8184 O.3     1  UNL1       -0.3779
      9 C          17.4897   70.7060   -6.6927 C.3     1  UNL1        0.1713
     10 C          18.1868   71.2007   -5.4106 C.3     1  UNL1        0.1764
     11 O          19.2204   72.1170   -5.8099 O.3     1  UNL1       -0.3308
     12 O          16.0974   71.0279   -6.6689 O.3     1  UNL1       -0.3794
     13 H          16.9278   71.1190   -9.2514 H       1  UNL1        0.2106
     14 H          15.7316   70.7486   -7.5188 H       1  UNL1        0.2105
     15 N          19.9750   73.2142   -7.7953 N.ar    1  UNL1       -0.2551
     16 C          20.8022   72.3736   -8.4408 C.ar    1  UNL1        0.3323
     17 N          21.8724   72.8354   -9.1143 N.ar    1  UNL1       -0.2743
     18 C          22.1381   74.1570   -9.1442 C.ar    1  UNL1        0.2626
     19 C          21.2788   75.0525   -8.4639 C.ar    1  UNL1        0.0795
     20 C          20.2094   74.5628   -7.8007 C.ar    1  UNL1        0.0869
     21 O          20.5758   71.1790   -8.4231 O.2     1  UNL1       -0.2464
     22 O          23.1081   74.5751   -9.7488 O.2     1  UNL1       -0.2670
     23 H          22.4558   72.2152   -9.5782 H       1  UNL1        0.1734
     24 O          21.8452   69.9467   -2.3658 O.3     1  UNL1       -0.2703
     25 P          22.0763   70.5558   -0.8945 P.3     1  UNL1        0.2208
     26 O          23.4957   70.3926   -0.5105 O.2     1  UNL1       -0.5170
     27 O          21.1425   69.7782    0.1618 O.3     1  UNL1       -0.4371
     28 O          21.6968   72.1199   -0.8941 O.3     1  UNL1       -0.2865
     29 C          22.8910   72.8361   -0.5743 C.3     1  UNL1        0.2611
     30 C          22.5353   74.0570    0.2760 C.3     1  UNL1        0.1582
     31 C          21.5638   74.9472   -0.5071 C.3     1  UNL1        0.1625
     32 C          22.1806   75.2619   -1.8741 C.3     1  UNL1        0.1686
     33 C          22.5603   73.9497   -2.5635 C.3     1  UNL1        0.1760
     34 O          21.3410   76.1614    0.2124 O.3     1  UNL1       -0.3801
     35 O          21.2313   75.9674   -2.6758 O.3     1  UNL1       -0.3794
     36 O          23.5290   73.2555   -1.7786 O.3     1  UNL1       -0.3263
     37 H          20.7257   76.6896   -0.3147 H       1  UNL1        0.2105
     38 H          21.6593   76.1443   -3.5255 H       1  UNL1        0.2105
     39 C          22.5796   73.6950    2.6845 C.2     1  UNL1        0.2231
     40 C          21.9289   73.2434    3.9671 C.3     1  UNL1        0.0946
     41 N          21.9034   73.6189    1.5222 N.am    1  UNL1       -0.2994
     42 O          23.7127   74.1265    2.6988 O.2     1  UNL1       -0.2751
     43 H          20.9967   73.2734    1.5104 H       1  UNL1        0.1496
     44 C          23.1477   74.2516   -3.9437 C.3     1  UNL1        0.1693
     45 O          24.0615   73.2157   -4.3098 O.3     1  UNL1       -0.3794
     46 H          24.4081   73.4441   -5.1830 H       1  UNL1        0.2105
@<TRIPOS>BOND
     1    29    30    1
     2    29    28    1
     3    29    36    1
     4    30    31    1
     5    30    41    1
     6    31    32    1
     7    31    34    1
     8    32    33    1
     9    32    35    1
    10    33    44    1
    11    33    36    1
    12    44    45    1
    13    39    40    1
    14    39    41   am
    15    39    42    2
    16    41    43    1
    17    28    25    1
    18    34    37    1
    19    35    38    1
    20    45    46    1
    21    15    16   ar
    22    15    20   ar
    23    15     6    1
    24    16    17   ar
    25    16    21    2
    26    17    18   ar
    27    17    23    1
    28    18    19   ar
    29    18    22    2
    30    19    20   ar
    31     6     7    1
    32     6    11    1
    33     7     8    1
    34     7     9    1
    35     8    13    1
    36     9    10    1
    37     9    12    1
    38    10    11    1
    39    10     5    1
    40    12    14    1
    41     5     4    1
    42     4     1    1
    43     1     2    2
    44     1     3    1
    45     1    24    1
    46    24    25    1
    47    25    26    2
    48    25    27    1
@<TRIPOS>MOLECULE
UD1
 46 48 0 0 0
SMALL
GASTEIGER

@<TRIPOS>ATOM
      1 P          22.1753   73.3634   -5.6085 P.3     1  UNL1        0.2189
      2 O          22.1452   72.2568   -6.5900 O.2     1  UNL1       -0.5170
      3 O          20.7222   73.5215   -4.9332 O.3     1  UNL1       -0.4371
      4 O          22.5700   74.7333   -6.3570 O.3     1  UNL1       -0.3112
      5 C          22.8302   74.3994   -7.7213 C.3     1  UNL1        0.1811
      6 C          19.3834   73.9475   -8.6394 C.3     1  UNL1        0.2383
      7 C          19.3690   75.1421   -7.6530 C.3     1  UNL1        0.1895
      8 O          18.3085   76.0472   -7.9618 O.3     1  UNL1       -0.3779
      9 C          20.7499   75.7975   -7.9151 C.3     1  UNL1        0.1713
     10 C          21.5816   74.6727   -8.5613 C.3     1  UNL1        0.1764
     11 O          20.7545   73.4974   -8.6045 O.3     1  UNL1       -0.3308
     12 O          20.6163   76.9058   -8.8077 O.3     1  UNL1       -0.3794
     13 H          18.3544   76.7640   -7.3141 H       1  UNL1        0.2106
     14 H          20.0387   77.5469   -8.3724 H       1  UNL1        0.2105
     15 N          18.4808   72.8886   -8.1860 N.ar    1  UNL1       -0.2551
     16 C          18.2653   71.8167   -8.9683 C.ar    1  UNL1        0.3323
     17 N          17.4432   70.8258   -8.5751 N.ar    1  UNL1       -0.2743
     18 C          16.8118   70.8983   -7.3859 C.ar    1  UNL1        0.2626
     19 C          17.0251   72.0240   -6.5552 C.ar    1  UNL1        0.0795
     20 C          17.8589   73.0010   -6.9718 C.ar    1  UNL1        0.0869
     21 O          18.8275   71.7368  -10.0435 O.2     1  UNL1       -0.2464
     22 O          16.0647   70.0052   -7.0315 O.2     1  UNL1       -0.2670
     23 H          17.3030   70.0576   -9.1499 H       1  UNL1        0.1734
     24 O          23.2652   73.0411   -4.4696 O.3     1  UNL1       -0.2703
     25 P          22.6192   71.9213   -3.5115 P.3     1  UNL1        0.2208
     26 O          23.6200   70.8654   -3.2425 O.2     1  UNL1       -0.5170
     27 O          21.3355   71.2715   -4.2340 O.3     1  UNL1       -0.4371
     28 O          22.1665   72.5977   -2.1229 O.3     1  UNL1       -0.2865
     29 C          20.9849   71.9173   -1.6963 C.3     1  UNL1        0.2611
     30 C          20.0400   72.9172   -1.0275 C.3     1  UNL1        0.1582
     31 C          20.7545   73.5608    0.1662 C.3     1  UNL1        0.1625
     32 C          21.2806   72.4490    1.0801 C.3     1  UNL1        0.1686
     33 C          22.1346   71.4860    0.2527 C.3     1  UNL1        0.1760
     34 O          19.8357   74.3836    0.8875 O.3     1  UNL1       -0.3801
     35 O          22.0753   73.0216    2.1204 O.3     1  UNL1       -0.3794
     36 O          21.3368   70.8916   -0.7704 O.3     1  UNL1       -0.3263
     37 H          20.3260   74.7677    1.6273 H       1  UNL1        0.2105
     38 H          22.3862   72.2886    2.6705 H       1  UNL1        0.2105
     39 C          18.3732   74.1007   -2.3524 C.2     1  UNL1        0.2231
     40 C          17.9850   75.1676   -3.3440 C.3     1  UNL1        0.0946
     41 N          19.6622   73.9538   -1.9903 N.am    1  UNL1       -0.2994
     42 O          17.5251   73.3738   -1.8809 O.2     1  UNL1       -0.2751
     43 H          20.3412   74.5353   -2.3677 H       1  UNL1        0.1496
     44 C          22.6916   70.3896    1.1629 C.3     1  UNL1        0.1693
     45 O          22.7984   69.1686    0.4282 O.3     1  UNL1       -0.3794
     46 H          23.1520   68.5058    1.0368 H       1  UNL1        0.2105
@<TRIPOS>BOND
     1    29    30    1
     2    29    28    1
     3    29    36    1
     4    30    31    1
     5    30    41    1
     6    31    32    1
     7    31    34    1
     8    32    33    1
     9    32    35    1
    10    33    44    1
    11    33    36    1
    12    44    45    1
    13    39    40    1
    14    39    41   am
    15    39    42    2
    16    41    43    1
    17    28    25    1
    18    34    37    1
    19    35    38    1
    20    45    46    1
    21    15    16   ar
    22    15    20   ar
    23    15     6    1
    24    16    17   ar
    25    16    21    2
    26    17    18   ar
    27    17    23    1
    28    18    19   ar
    29    18    22    2
    30    19    20   ar
    31     6     7    1
    32     6    11    1
    33     7     8    1
    34     7     9    1
    35     8    13    1
    36     9    10    1
    37     9    12    1
    38    10    11    1
    39    10     5    1
    40    12    14    1
    41     5     4    1
    42     4     1    1
    43     1     2    2
    44     1     3    1
    45     1    24    1
    46    24    25    1
    47    25    26    2
    48    25    27    1
@<TRIPOS>MOLECULE
UD1
 46 48 0 0 0
SMALL
GASTEIGER

@<TRIPOS>ATOM
      1 P          22.2214   71.1787   -2.9106 P.3     1  UNL1        0.2189
      2 O          21.9354   69.9087   -3.6135 O.2     1  UNL1       -0.5170
      3 O          23.5537   71.8432   -3.5238 O.3     1  UNL1       -0.4371
      4 O          22.4419   70.8857   -1.3426 O.3     1  UNL1       -0.3112
      5 C          22.5005   72.1543   -0.6888 C.3     1  UNL1        0.1811
      6 C          20.5301   73.1688    2.1424 C.3     1  UNL1        0.2383
      7 C          20.6505   74.4470    1.2753 C.3     1  UNL1        0.1895
      8 O          19.4963   75.2749    1.4221 O.3     1  UNL1       -0.3779
      9 C          20.7327   73.8613   -0.1584 C.3     1  UNL1        0.1713
     10 C          21.1893   72.4055    0.0575 C.3     1  UNL1        0.1764
     11 O          21.3877   72.2225    1.4697 O.3     1  UNL1       -0.3308
     12 O          19.4512   73.9021   -0.7898 O.3     1  UNL1       -0.3794
     13 H          19.6339   76.0498    0.8599 H       1  UNL1        0.2106
     14 H          19.1950   74.8326   -0.8418 H       1  UNL1        0.2105
     15 N          21.0045   73.4183    3.5040 N.ar    1  UNL1       -0.2551
     16 C          20.1266   73.7582    4.4638 C.ar    1  UNL1        0.3323
     17 N          20.5343   73.9896    5.7257 N.ar    1  UNL1       -0.2743
     18 C          21.8402   73.8923    6.0465 C.ar    1  UNL1        0.2626
     19 C          22.7760   73.5411    5.0446 C.ar    1  UNL1        0.0795
     20 C          22.3392   73.3092    3.7881 C.ar    1  UNL1        0.0869
     21 O          18.9454   73.8499    4.1900 O.2     1  UNL1       -0.2464
     22 O          22.2106   74.1060    7.1860 O.2     1  UNL1       -0.2670
     23 H          19.8866   74.2291    6.4064 H       1  UNL1        0.1734
     24 O          20.9819   72.1872   -3.0987 O.3     1  UNL1       -0.2703
     25 P          21.0505   72.7308   -4.6117 P.3     1  UNL1        0.2208
     26 O          22.4180   72.5396   -5.1429 O.2     1  UNL1       -0.5170
     27 O          20.6797   74.2973   -4.6372 O.3     1  UNL1       -0.4371
     28 O          20.0023   71.9179   -5.5233 O.3     1  UNL1       -0.2865
     29 C          19.0305   72.8610   -5.9787 C.3     1  UNL1        0.2611
     30 C          17.6320   72.2615   -5.8202 C.3     1  UNL1        0.1582
     31 C          17.5482   70.9637   -6.6314 C.3     1  UNL1        0.1625
     32 C          17.9712   71.2593   -8.0743 C.3     1  UNL1        0.1686
     33 C          19.3456   71.9317   -8.0628 C.3     1  UNL1        0.1760
     34 O          16.2062   70.4735   -6.6133 O.3     1  UNL1       -0.3801
     35 O          18.0414   70.0374   -8.8116 O.3     1  UNL1       -0.3794
     36 O          19.2725   73.1660   -7.3504 O.3     1  UNL1       -0.3263
     37 H          16.1994   69.6584   -7.1337 H       1  UNL1        0.2105
     38 H          18.3112   70.2690   -9.7117 H       1  UNL1        0.2105
     39 C          16.1673   72.2201   -3.8742 C.2     1  UNL1        0.2231
     40 C          15.9081   71.9242   -2.4190 C.3     1  UNL1        0.0946
     41 N          17.3797   71.9738   -4.4068 N.am    1  UNL1       -0.2994
     42 O          15.2843   72.6808   -4.5658 O.2     1  UNL1       -0.2751
     43 H          18.0865   71.6053   -3.8535 H       1  UNL1        0.1496
     44 C          19.7918   72.2018   -9.5012 C.3     1  UNL1        0.1693
     45 O          18.6440   72.2903  -10.3478 O.3     1  UNL1       -0.3794
     46 H          18.9686   72.4603  -11.2425 H       1  UNL1        0.2105
@<TRIPOS>BOND
     1    29    30    1
     2    29    28    1
     3    29    36    1
     4    30    31    1
     5    30    41    1
     6    31    32    1
     7    31    34    1
     8    32    33    1
     9    32    35    1
    10    33    44    1
    11    33    36    1
    12    44    45    1
    13    39    40    1
    14    39    41   am
    15    39    42    2
    16    41    43    1
    17    28    25    1
    18    34    37    1
    19    35    38    1
    20    45    46    1
    21    15    16   ar
    22    15    20   ar
    23    15     6    1
    24    16    17   ar
    25    16    21    2
    26    17    18   ar
    27    17    23    1
    28    18    19   ar
    29    18    22    2
    30    19    20   ar
    31     6     7    1
    32     6    11    1
    33     7     8    1
    34     7     9    1
    35     8    13    1
    36     9    10    1
    37     9    12    1
    38    10    11    1
    39    10     5    1
    40    12    14    1
    41     5     4    1
    42     4     1    1
    43     1     2    2
    44     1     3    1
    45     1    24    1
    46    24    25    1
    47    25    26    2
    48    25    27    1
@<TRIPOS>MOLECULE
UD1
 46 48 0 0 0
SMALL
GASTEIGER

@<TRIPOS>ATOM
      1 P          21.8958   74.5804   -6.1832 P.3     1  UNL1        0.2189
      2 O          21.0280   75.6799   -6.6594 O.2     1  UNL1       -0.5170
      3 O          23.4337   75.0557   -6.2210 O.3     1  UNL1       -0.4371
      4 O          21.7081   73.2974   -7.1380 O.3     1  UNL1       -0.3112
      5 C          20.9193   73.7214   -8.2508 C.3     1  UNL1        0.1811
      6 C          18.5125   71.2680   -7.1947 C.3     1  UNL1        0.2383
      7 C          17.7551   72.6168   -7.1090 C.3     1  UNL1        0.1895
      8 O          16.3610   72.4370   -7.3612 O.3     1  UNL1       -0.3779
      9 C          18.4215   73.4371   -8.2440 C.3     1  UNL1        0.1713
     10 C          19.7732   72.7329   -8.4709 C.3     1  UNL1        0.1764
     11 O          19.8636   71.6595   -7.5185 O.3     1  UNL1       -0.3308
     12 O          17.6224   73.3937   -9.4282 O.3     1  UNL1       -0.3794
     13 H          15.9492   73.3095   -7.2927 H       1  UNL1        0.2106
     14 H          16.7713   73.7940   -9.2056 H       1  UNL1        0.2105
     15 N          18.4719   70.5671   -5.9107 N.ar    1  UNL1       -0.2551
     16 C          17.3906   69.8385   -5.5832 C.ar    1  UNL1        0.3323
     17 N          17.3275   69.1802   -4.4107 N.ar    1  UNL1       -0.2743
     18 C          18.3518   69.2495   -3.5366 C.ar    1  UNL1        0.2626
     19 C          19.4937   70.0178   -3.8661 C.ar    1  UNL1        0.0795
     20 C          19.5329   70.6637   -5.0512 C.ar    1  UNL1        0.0869
     21 O          16.4588   69.7663   -6.3611 O.2     1  UNL1       -0.2464
     22 O          18.2938   68.6585   -2.4741 O.2     1  UNL1       -0.2670
     23 H          16.5418   68.6555   -4.1929 H       1  UNL1        0.1734
     24 O          21.4903   74.1911   -4.6756 O.3     1  UNL1       -0.2703
     25 P          22.8629   73.9279   -3.8782 P.3     1  UNL1        0.2208
     26 O          23.7252   75.1264   -3.9717 O.2     1  UNL1       -0.5170
     27 O          23.6266   72.6665   -4.5248 O.3     1  UNL1       -0.4371
     28 O          22.5366   73.6210   -2.3323 O.3     1  UNL1       -0.2865
     29 C          21.3542   72.8194   -2.3095 C.3     1  UNL1        0.2611
     30 C          20.3005   73.4984   -1.4328 C.3     1  UNL1        0.1582
     31 C          20.8631   73.6733   -0.0177 C.3     1  UNL1        0.1625
     32 C          21.3522   72.3116    0.4871 C.3     1  UNL1        0.1686
     33 C          22.3290   71.7235   -0.5332 C.3     1  UNL1        0.1760
     34 O          19.8390   74.1685    0.8469 O.3     1  UNL1       -0.3801
     35 O          22.0128   72.4768    1.7432 O.3     1  UNL1       -0.3794
     36 O          21.6648   71.5316   -1.7816 O.3     1  UNL1       -0.3263
     37 H          20.2355   74.2636    1.7238 H       1  UNL1        0.2105
     38 H          22.3046   71.5977    2.0235 H       1  UNL1        0.2105
     39 C          20.5957   75.9138   -1.5468 C.2     1  UNL1        0.2231
     40 C          20.2520   77.2631   -2.1243 C.3     1  UNL1        0.0946
     41 N          19.9674   74.8094   -1.9937 N.am    1  UNL1       -0.2994
     42 O          21.4376   75.8223   -0.6791 O.2     1  UNL1       -0.2751
     43 H          19.2934   74.8824   -2.6880 H       1  UNL1        0.1496
     44 C          22.8485   70.3777   -0.0231 C.3     1  UNL1        0.1693
     45 O          21.7885   69.6724    0.6257 O.3     1  UNL1       -0.3794
     46 H          22.1572   68.8327    0.9317 H       1  UNL1        0.2105
@<TRIPOS>BOND
     1    29    30    1
     2    29    28    1
     3    29    36    1
     4    30    31    1
     5    30    41    1
     6    31    32    1
     7    31    34    1
     8    32    33    1
     9    32    35    1
    10    33    44    1
    11    33    36    1
    12    44    45    1
    13    39    40    1
    14    39    41   am
    15    39    42    2
    16    41    43    1
    17    28    25    1
    18    34    37    1
    19    35    38    1
    20    45    46    1
    21    15    16   ar
    22    15    20   ar
    23    15     6    1
    24    16    17   ar
    25    16    21    2
    26    17    18   ar
    27    17    23    1
    28    18    19   ar
    29    18    22    2
    30    19    20   ar
    31     6     7    1
    32     6    11    1
    33     7     8    1
    34     7     9    1
    35     8    13    1
    36     9    10    1
    37     9    12    1
    38    10    11    1
    39    10     5    1
    40    12    14    1
    41     5     4    1
    42     4     1    1
    43     1     2    2
    44     1     3    1
    45     1    24    1
    46    24    25    1
    47    25    26    2
    48    25    27    1
@<TRIPOS>MOLECULE
UD1
 46 48 0 0 0
SMALL
GASTEIGER

@<TRIPOS>ATOM
      1 P          21.6498   70.6617   -2.2210 P.3     1  UNL1        0.2189
      2 O          21.3918   69.5739   -3.1900 O.2     1  UNL1       -0.5170
      3 O          23.2380   70.8392   -2.0239 O.3     1  UNL1       -0.4371
      4 O          20.9726   70.2924   -0.8076 O.3     1  UNL1       -0.3112
      5 C          21.7714   70.9039    0.2064 C.3     1  UNL1        0.1811
      6 C          21.2467   73.8293    2.2298 C.3     1  UNL1        0.2383
      7 C          22.5785   74.1044    1.4877 C.3     1  UNL1        0.1895
      8 O          22.7557   75.5024    1.2569 O.3     1  UNL1       -0.3779
      9 C          22.3697   73.3450    0.1517 C.3     1  UNL1        0.1713
     10 C          21.2629   72.3218    0.4717 C.3     1  UNL1        0.1764
     11 O          20.9302   72.4696    1.8627 O.3     1  UNL1       -0.3308
     12 O          21.9462   74.2452   -0.8745 O.3     1  UNL1       -0.3794
     13 H          23.5989   75.6054    0.7945 H       1  UNL1        0.2106
     14 H          22.6537   74.8941   -0.9861 H       1  UNL1        0.2105
     15 N          21.4254   73.9446    3.6777 N.ar    1  UNL1       -0.2551
     16 C          21.9830   72.9314    4.3630 C.ar    1  UNL1        0.3323
     17 N          22.1633   73.0116    5.6947 N.ar    1  UNL1       -0.2743
     18 C          21.7760   74.1139    6.3676 C.ar    1  UNL1        0.2626
     19 C          21.1821   75.1857    5.6594 C.ar    1  UNL1        0.0795
     20 C          21.0180   75.0809    4.3231 C.ar    1  UNL1        0.0869
     21 O          22.3376   71.9306    3.7702 O.2     1  UNL1       -0.2464
     22 O          21.9341   74.1856    7.5723 O.2     1  UNL1       -0.2670
     23 H          22.5715   72.2731    6.1723 H       1  UNL1        0.1734
     24 O          21.0200   72.0346   -2.7753 O.3     1  UNL1       -0.2703
     25 P          21.9701   72.5307   -3.9756 P.3     1  UNL1        0.2208
     26 O          23.2423   71.7762   -3.9416 O.2     1  UNL1       -0.5170
     27 O          22.2745   74.1025   -3.8054 O.3     1  UNL1       -0.4371
     28 O          21.2336   72.2776   -5.3841 O.3     1  UNL1       -0.2865
     29 C          19.8781   72.7000   -5.2250 C.3     1  UNL1        0.2611
     30 C          18.9439   71.6059   -5.7447 C.3     1  UNL1        0.1582
     31 C          19.2575   71.3385   -7.2211 C.3     1  UNL1        0.1625
     32 C          19.1946   72.6661   -7.9837 C.3     1  UNL1        0.1686
     33 C          20.1125   73.6795   -7.2968 C.3     1  UNL1        0.1760
     34 O          18.2959   70.4282   -7.7577 O.3     1  UNL1       -0.3801
     35 O          19.6264   72.4644   -9.3307 O.3     1  UNL1       -0.3794
     36 O          19.6676   73.9039   -5.9595 O.3     1  UNL1       -0.3263
     37 H          18.5308   70.2884   -8.6853 H       1  UNL1        0.2105
     38 H          19.5720   73.3232   -9.7735 H       1  UNL1        0.2105
     39 C          18.0858   69.6697   -4.5408 C.2     1  UNL1        0.2231
     40 C          18.2952   68.4079   -3.7432 C.3     1  UNL1        0.0946
     41 N          19.1468   70.3798   -4.9702 N.am    1  UNL1       -0.2994
     42 O          16.9618   70.0464   -4.7957 O.2     1  UNL1       -0.2751
     43 H          20.0464   70.0787   -4.7662 H       1  UNL1        0.1496
     44 C          20.0819   74.9995   -8.0699 C.3     1  UNL1        0.1693
     45 O          18.7617   75.2314   -8.5653 O.3     1  UNL1       -0.3794
     46 H          18.7862   76.0703   -9.0450 H       1  UNL1        0.2105
@<TRIPOS>BOND
     1    29    30    1
     2    29    28    1
     3    29    36    1
     4    30    31    1
     5    30    41    1
     6    31    32    1
     7    31    34    1
     8    32    33    1
     9    32    35    1
    10    33    44    1
    11    33    36    1
    12    44    45    1
    13    39    40    1
    14    39    41   am
    15    39    42    2
    16    41    43    1
    17    28    25    1
    18    34    37    1
    19    35    38    1
    20    45    46    1
    21    15    16   ar
    22    15    20   ar
    23    15     6    1
    24    16    17   ar
    25    16    21    2
    26    17    18   ar
    27    17    23    1
    28    18    19   ar
    29    18    22    2
    30    19    20   ar
    31     6     7    1
    32     6    11    1
    33     7     8    1
    34     7     9    1
    35     8    13    1
    36     9    10    1
    37     9    12    1
    38    10    11    1
    39    10     5    1
    40    12    14    1
    41     5     4    1
    42     4     1    1
    43     1     2    2
    44     1     3    1
    45     1    24    1
    46    24    25    1
    47    25    26    2
    48    25    27    1
@<TRIPOS>MOLECULE
UD1
 46 48 0 0 0
SMALL
GASTEIGER

@<TRIPOS>ATOM
      1 P          21.9363   70.4779   -0.3096 P.3     1  UNL1        0.2189
      2 O          22.9001   69.4672    0.1785 O.2     1  UNL1       -0.5170
      3 O          21.1732   71.1411    0.9435 O.3     1  UNL1       -0.4371
      4 O          20.8617   69.7702   -1.2777 O.3     1  UNL1       -0.3112
      5 C          21.0286   70.3477   -2.5735 C.3     1  UNL1        0.1811
      6 C          18.5058   70.9667   -5.0594 C.3     1  UNL1        0.2383
      7 C          18.0847   69.6275   -4.4041 C.3     1  UNL1        0.1895
      8 O          16.6651   69.4741   -4.4216 O.3     1  UNL1       -0.3779
      9 C          18.6052   69.7972   -2.9531 C.3     1  UNL1        0.1713
     10 C          19.6865   70.8890   -3.0685 C.3     1  UNL1        0.1764
     11 O          19.7866   71.2494   -4.4567 O.3     1  UNL1       -0.3308
     12 O          17.5484   70.2199   -2.0887 O.3     1  UNL1       -0.3794
     13 H          16.4699   68.6249   -4.0017 H       1  UNL1        0.2106
     14 H          16.8784   69.5236   -2.1056 H       1  UNL1        0.2105
     15 N          18.6394   70.8164   -6.5089 N.ar    1  UNL1       -0.2551
     16 C          17.5397   70.8092   -7.2821 C.ar    1  UNL1        0.3323
     17 N          17.6328   70.6764   -8.6185 N.ar    1  UNL1       -0.2743
     18 C          18.8390   70.5384   -9.2052 C.ar    1  UNL1        0.2626
     19 C          20.0045   70.5383   -8.4024 C.ar    1  UNL1        0.0795
     20 C          19.8826   70.6785   -7.0650 C.ar    1  UNL1        0.0869
     21 O          16.4448   70.9327   -6.7678 O.2     1  UNL1       -0.2464
     22 O          18.9241   70.4135  -10.4129 O.2     1  UNL1       -0.2670
     23 H          16.8294   70.6781   -9.1614 H       1  UNL1        0.1734
     24 O          22.7232   71.6198   -1.1255 O.3     1  UNL1       -0.2703
     25 P          22.5775   72.9803   -0.2787 P.3     1  UNL1        0.2208
     26 O          23.3643   74.0519   -0.9279 O.2     1  UNL1       -0.5170
     27 O          23.1257   72.7438    1.2166 O.3     1  UNL1       -0.4371
     28 O          21.0285   73.4133   -0.2186 O.3     1  UNL1       -0.2865
     29 C          20.9617   74.7745   -0.6471 C.3     1  UNL1        0.2611
     30 C          20.3441   75.6243    0.4649 C.3     1  UNL1        0.1582
     31 C          18.9442   75.0888    0.7862 C.3     1  UNL1        0.1625
     32 C          18.1337   75.0256   -0.5127 C.3     1  UNL1        0.1686
     33 C          18.9168   74.2183   -1.5501 C.3     1  UNL1        0.1760
     34 O          18.2991   75.9619    1.7151 O.3     1  UNL1       -0.3801
     35 O          16.8774   74.3929   -0.2618 O.3     1  UNL1       -0.3794
     36 O          20.1606   74.8623   -1.8235 O.3     1  UNL1       -0.3263
     37 H          17.4243   75.5879    1.8888 H       1  UNL1        0.2105
     38 H          16.4008   74.3734   -1.1038 H       1  UNL1        0.2105
     39 C          20.8809   74.6827    2.6465 C.2     1  UNL1        0.2231
     40 C          21.7458   74.6073    3.8788 C.3     1  UNL1        0.0946
     41 N          21.1843   75.5504    1.6620 N.am    1  UNL1       -0.2994
     42 O          19.9111   73.9624    2.5415 O.2     1  UNL1       -0.2751
     43 H          21.9602   76.1270    1.7459 H       1  UNL1        0.1496
     44 C          18.1012   74.1216   -2.8411 C.3     1  UNL1        0.1693
     45 O          17.3014   75.2966   -2.9888 O.3     1  UNL1       -0.3794
     46 H          16.8046   75.1953   -3.8119 H       1  UNL1        0.2105
@<TRIPOS>BOND
     1    29    30    1
     2    29    28    1
     3    29    36    1
     4    30    31    1
     5    30    41    1
     6    31    32    1
     7    31    34    1
     8    32    33    1
     9    32    35    1
    10    33    44    1
    11    33    36    1
    12    44    45    1
    13    39    40    1
    14    39    41   am
    15    39    42    2
    16    41    43    1
    17    28    25    1
    18    34    37    1
    19    35    38    1
    20    45    46    1
    21    15    16   ar
    22    15    20   ar
    23    15     6    1
    24    16    17   ar
    25    16    21    2
    26    17    18   ar
    27    17    23    1
    28    18    19   ar
    29    18    22    2
    30    19    20   ar
    31     6     7    1
    32     6    11    1
    33     7     8    1
    34     7     9    1
    35     8    13    1
    36     9    10    1
    37     9    12    1
    38    10    11    1
    39    10     5    1
    40    12    14    1
    41     5     4    1
    42     4     1    1
    43     1     2    2
    44     1     3    1
    45     1    24    1
    46    24    25    1
    47    25    26    2
    48    25    27    1
@<TRIPOS>MOLECULE
UD1
 46 48 0 0 0
SMALL
GASTEIGER

@<TRIPOS>ATOM
      1 P          19.5363   73.5660   -3.3156 P.3     1  UNL1        0.2189
      2 O          18.4570   74.3660   -3.9352 O.2     1  UNL1       -0.5170
      3 O          19.1931   71.9994   -3.4588 O.3     1  UNL1       -0.4371
      4 O          19.6584   73.9472   -1.7559 O.3     1  UNL1       -0.3112
      5 C          20.9150   74.6052   -1.5878 C.3     1  UNL1        0.1811
      6 C          22.2115   72.9025    1.3014 C.3     1  UNL1        0.2383
      7 C          21.2220   71.8930    0.6674 C.3     1  UNL1        0.1895
      8 O          21.6377   70.5486    0.9103 O.3     1  UNL1       -0.3779
      9 C          21.3244   72.2400   -0.8406 C.3     1  UNL1        0.1713
     10 C          21.8850   73.6752   -0.8574 C.3     1  UNL1        0.1764
     11 O          22.0297   74.0959    0.5099 O.3     1  UNL1       -0.3308
     12 O          22.2162   71.3399   -1.5017 O.3     1  UNL1       -0.3794
     13 H          20.9825   69.9729    0.4923 H       1  UNL1        0.2106
     14 H          21.8415   70.4542   -1.4051 H       1  UNL1        0.2105
     15 N          21.8700   73.1550    2.7018 N.ar    1  UNL1       -0.2551
     16 C          22.2915   72.3049    3.6541 C.ar    1  UNL1        0.3323
     17 N          21.9956   72.5143    4.9506 N.ar    1  UNL1       -0.2743
     18 C          21.2587   73.5829    5.3153 C.ar    1  UNL1        0.2626
     19 C          20.8034   74.4826    4.3223 C.ar    1  UNL1        0.0795
     20 C          21.1192   74.2515    3.0299 C.ar    1  UNL1        0.0869
     21 O          22.9571   71.3366    3.3409 O.2     1  UNL1       -0.2464
     22 O          20.9865   73.7706    6.4866 O.2     1  UNL1       -0.2670
     23 H          22.3120   71.8934    5.6247 H       1  UNL1        0.1734
     24 O          20.9300   73.8808   -4.0554 O.3     1  UNL1       -0.2703
     25 P          21.1990   72.6666   -5.0765 P.3     1  UNL1        0.2208
     26 O          21.1625   71.3847   -4.3389 O.2     1  UNL1       -0.5170
     27 O          22.6447   72.8502   -5.7609 O.3     1  UNL1       -0.4371
     28 O          20.0636   72.6617   -6.2173 O.3     1  UNL1       -0.2865
     29 C          20.0422   71.3465   -6.7751 C.3     1  UNL1        0.2611
     30 C          20.0921   71.4442   -8.3009 C.3     1  UNL1        0.1582
     31 C          18.8898   72.2593   -8.7906 C.3     1  UNL1        0.1625
     32 C          17.6110   71.6385   -8.2184 C.3     1  UNL1        0.1686
     33 C          17.7471   71.5290   -6.6983 C.3     1  UNL1        0.1760
     34 O          18.8422   72.2318  -10.2183 O.3     1  UNL1       -0.3801
     35 O          16.4921   72.4664   -8.5411 O.3     1  UNL1       -0.3794
     36 O          18.8473   70.6805   -6.3726 O.3     1  UNL1       -0.3263
     37 H          18.0732   72.7555  -10.4823 H       1  UNL1        0.2105
     38 H          15.7102   72.0401   -8.1622 H       1  UNL1        0.2105
     39 C          21.3410   73.4305   -8.9562 C.2     1  UNL1        0.2231
     40 C          22.6182   74.1116   -9.3768 C.3     1  UNL1        0.0946
     41 N          21.3327   72.1064   -8.7091 N.am    1  UNL1       -0.2994
     42 O          20.3201   74.0744   -8.8407 O.2     1  UNL1       -0.2751
     43 H          22.1495   71.5908   -8.8016 H       1  UNL1        0.1496
     44 C          16.4618   70.9399   -6.1135 C.3     1  UNL1        0.1693
     45 O          16.7824   69.8097   -5.2999 O.3     1  UNL1       -0.3794
     46 H          15.9470   69.4692   -4.9521 H       1  UNL1        0.2105
@<TRIPOS>BOND
     1    29    30    1
     2    29    28    1
     3    29    36    1
     4    30    31    1
     5    30    41    1
     6    31    32    1
     7    31    34    1
     8    32    33    1
     9    32    35    1
    10    33    44    1
    11    33    36    1
    12    44    45    1
    13    39    40    1
    14    39    41   am
    15    39    42    2
    16    41    43    1
    17    28    25    1
    18    34    37    1
    19    35    38    1
    20    45    46    1
    21    15    16   ar
    22    15    20   ar
    23    15     6    1
    24    16    17   ar
    25    16    21    2
    26    17    18   ar
    27    17    23    1
    28    18    19   ar
    29    18    22    2
    30    19    20   ar
    31     6     7    1
    32     6    11    1
    33     7     8    1
    34     7     9    1
    35     8    13    1
    36     9    10    1
    37     9    12    1
    38    10    11    1
    39    10     5    1
    40    12    14    1
    41     5     4    1
    42     4     1    1
    43     1     2    2
    44     1     3    1
    45     1    24    1
    46    24    25    1
    47    25    26    2
    48    25    27    1
@<TRIPOS>MOLECULE
UD1
 46 48 0 0 0
SMALL
GASTEIGER

@<TRIPOS>ATOM
      1 P          18.5417   72.8905   -2.5838 P.3     1  UNL1        0.2189
      2 O          19.1579   73.2721   -3.8735 O.2     1  UNL1       -0.5170
      3 O          17.8135   74.1725   -1.9367 O.3     1  UNL1       -0.4371
      4 O          19.6837   72.3599   -1.5802 O.3     1  UNL1       -0.3112
      5 C          20.6698   73.3897   -1.4937 C.3     1  UNL1        0.1811
      6 C          22.8253   72.4416    1.2233 C.3     1  UNL1        0.2383
      7 C          22.0325   71.1532    0.8889 C.3     1  UNL1        0.1895
      8 O          22.8112   69.9881    1.1637 O.3     1  UNL1       -0.3779
      9 C          21.7871   71.3080   -0.6346 C.3     1  UNL1        0.1713
     10 C          21.9533   72.8187   -0.8889 C.3     1  UNL1        0.1764
     11 O          22.2151   73.4418    0.3802 O.3     1  UNL1       -0.3308
     12 O          22.7536   70.5601   -1.3757 O.3     1  UNL1       -0.3794
     13 H          22.2630   69.2246    0.9358 H       1  UNL1        0.2106
     14 H          22.6382   69.6328   -1.1288 H       1  UNL1        0.2105
     15 N          22.6724   72.7937    2.6354 N.ar    1  UNL1       -0.2551
     16 C          21.5617   72.4256    3.2974 C.ar    1  UNL1        0.3323
     17 N          21.3960   72.7325    4.5976 N.ar    1  UNL1       -0.2743
     18 C          22.3445   73.4268    5.2581 C.ar    1  UNL1        0.2626
     19 C          23.5160   73.8258    4.5717 C.ar    1  UNL1        0.0795
     20 C          23.6589   73.5001    3.2691 C.ar    1  UNL1        0.0869
     21 O          20.6973   71.7989    2.7154 O.2     1  UNL1       -0.2464
     22 O          22.1936   73.7089    6.4324 O.2     1  UNL1       -0.2670
     23 H          20.5906   72.4548    5.0607 H       1  UNL1        0.1734
     24 O          17.4600   71.7250   -2.8298 O.3     1  UNL1       -0.2703
     25 P          17.9518   70.8993   -4.1204 P.3     1  UNL1        0.2208
     26 O          17.1579   69.6569   -4.2428 O.2     1  UNL1       -0.5170
     27 O          19.5095   70.5260   -3.9580 O.3     1  UNL1       -0.4371
     28 O          17.7513   71.7965   -5.4415 O.3     1  UNL1       -0.2865
     29 C          16.4546   71.4907   -5.9574 C.3     1  UNL1        0.2611
     30 C          16.4656   71.6506   -7.4786 C.3     1  UNL1        0.1582
     31 C          16.8617   73.0894   -7.8286 C.3     1  UNL1        0.1625
     32 C          15.9323   74.0497   -7.0788 C.3     1  UNL1        0.1686
     33 C          15.9639   73.7107   -5.5870 C.3     1  UNL1        0.1760
     34 O          16.7310   73.2930   -9.2367 O.3     1  UNL1       -0.3801
     35 O          16.3756   75.3939   -7.2744 O.3     1  UNL1       -0.3794
     36 O          15.4958   72.3778   -5.3855 O.3     1  UNL1       -0.3263
     37 H          16.9898   74.2083   -9.4119 H       1  UNL1        0.2105
     38 H          15.7646   75.9638   -6.7860 H       1  UNL1        0.2105
     39 C          18.6881   71.1306   -8.3298 C.2     1  UNL1        0.2231
     40 C          19.6842   70.1720   -8.9308 C.3     1  UNL1        0.0946
     41 N          17.4337   70.7195   -8.0621 N.am    1  UNL1       -0.2994
     42 O          19.0158   72.2727   -8.0876 O.2     1  UNL1       -0.2751
     43 H          17.1712   69.8057   -8.2559 H       1  UNL1        0.1496
     44 C          15.0637   74.6852   -4.8247 C.3     1  UNL1        0.1693
     45 O          15.6781   75.0282   -3.5808 O.3     1  UNL1       -0.3794
     46 H          15.0799   75.6417   -3.1331 H       1  UNL1        0.2105
@<TRIPOS>BOND
     1    29    30    1
     2    29    28    1
     3    29    36    1
     4    30    31    1
     5    30    41    1
     6    31    32    1
     7    31    34    1
     8    32    33    1
     9    32    35    1
    10    33    44    1
    11    33    36    1
    12    44    45    1
    13    39    40    1
    14    39    41   am
    15    39    42    2
    16    41    43    1
    17    28    25    1
    18    34    37    1
    19    35    38    1
    20    45    46    1
    21    15    16   ar
    22    15    20   ar
    23    15     6    1
    24    16    17   ar
    25    16    21    2
    26    17    18   ar
    27    17    23    1
    28    18    19   ar
    29    18    22    2
    30    19    20   ar
    31     6     7    1
    32     6    11    1
    33     7     8    1
    34     7     9    1
    35     8    13    1
    36     9    10    1
    37     9    12    1
    38    10    11    1
    39    10     5    1
    40    12    14    1
    41     5     4    1
    42     4     1    1
    43     1     2    2
    44     1     3    1
    45     1    24    1
    46    24    25    1
    47    25    26    2
    48    25    27    1
@<TRIPOS>MOLECULE
UD1
 46 48 0 0 0
SMALL
GASTEIGER

@<TRIPOS>ATOM
      1 P          21.9388   74.5746   -7.4061 P.3     1  UNL1        0.2189
      2 O          21.3140   75.4427   -8.4281 O.2     1  UNL1       -0.5170
      3 O          23.4990   74.9474   -7.2663 O.3     1  UNL1       -0.4371
      4 O          21.7941   73.0337   -7.8504 O.3     1  UNL1       -0.3112
      5 C          21.3356   73.0343   -9.2032 C.3     1  UNL1        0.1811
      6 C          18.5910   71.1278   -7.8768 C.3     1  UNL1        0.2383
      7 C          18.0281   72.5629   -8.0310 C.3     1  UNL1        0.1895
      8 O          16.6274   72.5356   -8.3076 O.3     1  UNL1       -0.3779
      9 C          18.8229   73.0950   -9.2518 C.3     1  UNL1        0.1713
     10 C          20.0667   72.1875   -9.3131 C.3     1  UNL1        0.1764
     11 O          19.9891   71.2767   -8.2034 O.3     1  UNL1       -0.3308
     12 O          18.0470   72.9727  -10.4459 O.3     1  UNL1       -0.3794
     13 H          16.3403   73.4554   -8.3913 H       1  UNL1        0.2106
     14 H          17.2564   73.5145  -10.3219 H       1  UNL1        0.2105
     15 N          18.4298   70.6515   -6.5026 N.ar    1  UNL1       -0.2551
     16 C          17.2607   70.1109   -6.1176 C.ar    1  UNL1        0.3323
     17 N          17.0855   69.6609   -4.8610 N.ar    1  UNL1       -0.2743
     18 C          18.0843   69.7548   -3.9602 C.ar    1  UNL1        0.2626
     19 C          19.3184   70.3273   -4.3504 C.ar    1  UNL1        0.0795
     20 C          19.4688   70.7658   -5.6187 C.ar    1  UNL1        0.0869
     21 O          16.3504   70.0192   -6.9185 O.2     1  UNL1       -0.2464
     22 O          17.9255   69.3527   -2.8224 O.2     1  UNL1       -0.2670
     23 H          16.2371   69.2694   -4.6018 H       1  UNL1        0.1734
     24 O          21.2043   74.7963   -5.9918 O.3     1  UNL1       -0.2703
     25 P          22.0241   73.9409   -4.9030 P.3     1  UNL1        0.2208
     26 O          22.7661   72.8573   -5.5842 O.2     1  UNL1       -0.5170
     27 O          20.9987   73.3015   -3.8391 O.3     1  UNL1       -0.4371
     28 O          23.0623   74.9015   -4.1350 O.3     1  UNL1       -0.2865
     29 C          23.9383   74.0536   -3.3900 C.3     1  UNL1        0.2611
     30 C          23.8803   74.4416   -1.9115 C.3     1  UNL1        0.1582
     31 C          24.2925   75.9104   -1.7623 C.3     1  UNL1        0.1625
     32 C          25.6549   76.1079   -2.4352 C.3     1  UNL1        0.1686
     33 C          25.5781   75.5969   -3.8755 C.3     1  UNL1        0.1760
     34 O          24.3869   76.2428   -0.3759 O.3     1  UNL1       -0.3801
     35 O          25.9904   77.4968   -2.4367 O.3     1  UNL1       -0.3794
     36 O          25.2702   74.2035   -3.8768 O.3     1  UNL1       -0.3263
     37 H          24.6476   77.1729   -0.3287 H       1  UNL1        0.2105
     38 H          26.8525   77.5759   -2.8691 H       1  UNL1        0.2105
     39 C          22.2253   73.2241   -0.6028 C.2     1  UNL1        0.2231
     40 C          20.8205   73.0391   -0.0882 C.3     1  UNL1        0.0946
     41 N          22.5160   74.2617   -1.4109 N.am    1  UNL1       -0.2994
     42 O          23.0940   72.4384   -0.2898 O.2     1  UNL1       -0.2751
     43 H          21.8208   74.8906   -1.6618 H       1  UNL1        0.1496
     44 C          26.9249   75.8194   -4.5668 C.3     1  UNL1        0.1693
     45 O          27.5950   74.5666   -4.7198 O.3     1  UNL1       -0.3794
     46 H          28.4368   74.7512   -5.1579 H       1  UNL1        0.2105
@<TRIPOS>BOND
     1    29    30    1
     2    29    28    1
     3    29    36    1
     4    30    31    1
     5    30    41    1
     6    31    32    1
     7    31    34    1
     8    32    33    1
     9    32    35    1
    10    33    44    1
    11    33    36    1
    12    44    45    1
    13    39    40    1
    14    39    41   am
    15    39    42    2
    16    41    43    1
    17    28    25    1
    18    34    37    1
    19    35    38    1
    20    45    46    1
    21    15    16   ar
    22    15    20   ar
    23    15     6    1
    24    16    17   ar
    25    16    21    2
    26    17    18   ar
    27    17    23    1
    28    18    19   ar
    29    18    22    2
    30    19    20   ar
    31     6     7    1
    32     6    11    1
    33     7     8    1
    34     7     9    1
    35     8    13    1
    36     9    10    1
    37     9    12    1
    38    10    11    1
    39    10     5    1
    40    12    14    1
    41     5     4    1
    42     4     1    1
    43     1     2    2
    44     1     3    1
    45     1    24    1
    46    24    25    1
    47    25    26    2
    48    25    27    1
@<TRIPOS>MOLECULE
UD1
 46 48 0 0 0
SMALL
GASTEIGER

@<TRIPOS>ATOM
      1 P          22.8445   73.2526   -3.9525 P.3     1  UNL1        0.2189
      2 O          22.0097   74.4735   -3.9901 O.2     1  UNL1       -0.5170
      3 O          22.2770   72.2487   -2.8288 O.3     1  UNL1       -0.4371
      4 O          24.3631   73.6523   -3.5961 O.3     1  UNL1       -0.3112
      5 C          24.4894   75.0546   -3.8368 C.3     1  UNL1        0.1811
      6 C          28.0358   75.4583   -4.2701 C.3     1  UNL1        0.2383
      7 C          27.4240   76.7622   -4.8409 C.3     1  UNL1        0.1895
      8 O          28.3152   77.8642   -4.6661 O.3     1  UNL1       -0.3779
      9 C          26.1531   76.9346   -3.9689 C.3     1  UNL1        0.1713
     10 C          25.8838   75.5216   -3.4163 C.3     1  UNL1        0.1764
     11 O          26.8805   74.6463   -3.9708 O.3     1  UNL1       -0.3308
     12 O          26.3978   77.8568   -2.9048 O.3     1  UNL1       -0.3794
     13 H          27.8773   78.6409   -5.0409 H       1  UNL1        0.2106
     14 H          26.6183   78.7039   -3.3145 H       1  UNL1        0.2105
     15 N          28.8835   74.8027   -5.2665 N.ar    1  UNL1       -0.2551
     16 C          29.9494   74.0873   -4.8674 C.ar    1  UNL1        0.3323
     17 N          30.7443   73.4703   -5.7616 N.ar    1  UNL1       -0.2743
     18 C          30.4868   73.5688   -7.0815 C.ar    1  UNL1        0.2626
     19 C          29.3713   74.3238   -7.5157 C.ar    1  UNL1        0.0795
     20 C          28.5875   74.9280   -6.5971 C.ar    1  UNL1        0.0869
     21 O          30.1947   73.9890   -3.6805 O.2     1  UNL1       -0.2464
     22 O          31.2076   73.0153   -7.8911 O.2     1  UNL1       -0.2670
     23 H          31.5063   72.9544   -5.4558 H       1  UNL1        0.1734
     24 O          22.8033   72.5299   -5.3895 O.3     1  UNL1       -0.2703
     25 P          21.4341   72.9870   -6.1007 P.3     1  UNL1        0.2208
     26 O          21.3781   72.4267   -7.4688 O.2     1  UNL1       -0.5170
     27 O          21.3790   74.5943   -6.1772 O.3     1  UNL1       -0.4371
     28 O          20.1794   72.4486   -5.2485 O.3     1  UNL1       -0.2865
     29 C          19.8068   71.1889   -5.8102 C.3     1  UNL1        0.2611
     30 C          18.3778   71.2790   -6.3486 C.3     1  UNL1        0.1582
     31 C          17.4337   71.6611   -5.2031 C.3     1  UNL1        0.1625
     32 C          17.6352   70.6711   -4.0510 C.3     1  UNL1        0.1686
     33 C          19.1201   70.6292   -3.6838 C.3     1  UNL1        0.1760
     34 O          16.0805   71.6025   -5.6580 O.3     1  UNL1       -0.3801
     35 O          16.8732   71.0940   -2.9186 O.3     1  UNL1       -0.3794
     36 O          19.8813   70.1808   -4.8045 O.3     1  UNL1       -0.3263
     37 H          15.5226   71.8498   -4.9078 H       1  UNL1        0.2105
     38 H          17.0293   70.4448   -2.2181 H       1  UNL1        0.2105
     39 C          18.3634   71.9353   -8.6945 C.2     1  UNL1        0.2231
     40 C          18.2972   72.9847   -9.7747 C.3     1  UNL1        0.0946
     41 N          18.3130   72.2979   -7.3983 N.am    1  UNL1       -0.2994
     42 O          18.4626   70.7641   -8.9923 O.2     1  UNL1       -0.2751
     43 H          18.2338   73.2352   -7.1597 H       1  UNL1        0.1496
     44 C          19.3275   69.6673   -2.5121 C.3     1  UNL1        0.1693
     45 O          18.2983   68.6760   -2.5211 O.3     1  UNL1       -0.3794
     46 H          18.4655   68.0922   -1.7689 H       1  UNL1        0.2105
@<TRIPOS>BOND
     1    29    30    1
     2    29    28    1
     3    29    36    1
     4    30    31    1
     5    30    41    1
     6    31    32    1
     7    31    34    1
     8    32    33    1
     9    32    35    1
    10    33    44    1
    11    33    36    1
    12    44    45    1
    13    39    40    1
    14    39    41   am
    15    39    42    2
    16    41    43    1
    17    28    25    1
    18    34    37    1
    19    35    38    1
    20    45    46    1
    21    15    16   ar
    22    15    20   ar
    23    15     6    1
    24    16    17   ar
    25    16    21    2
    26    17    18   ar
    27    17    23    1
    28    18    19   ar
    29    18    22    2
    30    19    20   ar
    31     6     7    1
    32     6    11    1
    33     7     8    1
    34     7     9    1
    35     8    13    1
    36     9    10    1
    37     9    12    1
    38    10    11    1
    39    10     5    1
    40    12    14    1
    41     5     4    1
    42     4     1    1
    43     1     2    2
    44     1     3    1
    45     1    24    1
    46    24    25    1
    47    25    26    2
    48    25    27    1
@<TRIPOS>MOLECULE
UD1
 46 48 0 0 0
SMALL
GASTEIGER

@<TRIPOS>ATOM
      1 P          22.5105   70.4082   -0.2208 P.3     1  UNL1        0.2189
      2 O          21.3576   69.6723    0.3431 O.2     1  UNL1       -0.5170
      3 O          23.8719   69.6235    0.1304 O.3     1  UNL1       -0.4371
      4 O          22.5653   71.8868    0.4144 O.3     1  UNL1       -0.3112
      5 C          22.3627   71.7408    1.8208 C.3     1  UNL1        0.1811
      6 C          20.3453   73.7263    4.0378 C.3     1  UNL1        0.2383
      7 C          21.0193   74.7574    3.0983 C.3     1  UNL1        0.1895
      8 O          20.1821   75.8982    2.9068 O.3     1  UNL1       -0.3779
      9 C          21.1656   73.9511    1.7816 C.3     1  UNL1        0.1713
     10 C          21.0886   72.4798    2.2329 C.3     1  UNL1        0.1764
     11 O          20.9627   72.4759    3.6652 O.3     1  UNL1       -0.3308
     12 O          20.0984   74.2621    0.8832 O.3     1  UNL1       -0.3794
     13 H          20.6574   76.4986    2.3160 H       1  UNL1        0.2106
     14 H          20.1654   75.2059    0.6860 H       1  UNL1        0.2105
     15 N          20.6230   74.0416    5.4396 N.ar    1  UNL1       -0.2551
     16 C          21.8754   73.9224    5.9138 C.ar    1  UNL1        0.3323
     17 N          22.1606   74.2094    7.1978 N.ar    1  UNL1       -0.2743
     18 C          21.1855   74.6148    8.0361 C.ar    1  UNL1        0.2626
     19 C          19.8617   74.7388    7.5516 C.ar    1  UNL1        0.0795
     20 C          19.6044   74.4496    6.2579 C.ar    1  UNL1        0.0869
     21 O          22.7656   73.5579    5.1699 O.2     1  UNL1       -0.2464
     22 O          21.4414   74.8699    9.1984 O.2     1  UNL1       -0.2670
     23 H          23.0703   74.1224    7.5217 H       1  UNL1        0.1734
     24 O          22.3489   70.5163   -1.8181 O.3     1  UNL1       -0.2703
     25 P          20.7952   70.8170   -2.1089 P.3     1  UNL1        0.2208
     26 O          20.3316   71.9120   -1.2285 O.2     1  UNL1       -0.5170
     27 O          19.9278   69.4921   -1.8183 O.3     1  UNL1       -0.4371
     28 O          20.6101   71.2510   -3.6477 O.3     1  UNL1       -0.2865
     29 C          20.2517   72.6340   -3.6481 C.3     1  UNL1        0.2611
     30 C          19.5517   72.9739   -4.9651 C.3     1  UNL1        0.1582
     31 C          20.4963   72.6593   -6.1306 C.3     1  UNL1        0.1625
     32 C          21.8258   73.3834   -5.8930 C.3     1  UNL1        0.1686
     33 C          22.3558   73.0101   -4.5070 C.3     1  UNL1        0.1760
     34 O          19.9135   73.1107   -7.3545 O.3     1  UNL1       -0.3801
     35 O          22.7701   72.9880   -6.8898 O.3     1  UNL1       -0.3794
     36 O          21.4275   73.4283   -3.5071 O.3     1  UNL1       -0.3263
     37 H          20.5394   72.8930   -8.0590 H       1  UNL1        0.2105
     38 H          23.5908   73.4654   -6.7027 H       1  UNL1        0.2105
     39 C          18.3652   70.9913   -5.7371 C.2     1  UNL1        0.2231
     40 C          17.1093   70.1680   -5.8684 C.3     1  UNL1        0.0946
     41 N          18.3320   72.1735   -5.0925 N.am    1  UNL1       -0.2994
     42 O          19.4058   70.5897   -6.2125 O.2     1  UNL1       -0.2751
     43 H          17.4993   72.4952   -4.7121 H       1  UNL1        0.1496
     44 C          23.6999   73.7027   -4.2728 C.3     1  UNL1        0.1693
     45 O          24.1341   73.4602   -2.9331 O.3     1  UNL1       -0.3794
     46 H          24.9818   73.9129   -2.8275 H       1  UNL1        0.2105
@<TRIPOS>BOND
     1    29    30    1
     2    29    28    1
     3    29    36    1
     4    30    31    1
     5    30    41    1
     6    31    32    1
     7    31    34    1
     8    32    33    1
     9    32    35    1
    10    33    44    1
    11    33    36    1
    12    44    45    1
    13    39    40    1
    14    39    41   am
    15    39    42    2
    16    41    43    1
    17    28    25    1
    18    34    37    1
    19    35    38    1
    20    45    46    1
    21    15    16   ar
    22    15    20   ar
    23    15     6    1
    24    16    17   ar
    25    16    21    2
    26    17    18   ar
    27    17    23    1
    28    18    19   ar
    29    18    22    2
    30    19    20   ar
    31     6     7    1
    32     6    11    1
    33     7     8    1
    34     7     9    1
    35     8    13    1
    36     9    10    1
    37     9    12    1
    38    10    11    1
    39    10     5    1
    40    12    14    1
    41     5     4    1
    42     4     1    1
    43     1     2    2
    44     1     3    1
    45     1    24    1
    46    24    25    1
    47    25    26    2
    48    25    27    1
@<TRIPOS>MOLECULE
UD1
 46 48 0 0 0
SMALL
GASTEIGER

@<TRIPOS>ATOM
      1 P          22.7729   74.3713   -4.7593 P.3     1  UNL1        0.2189
      2 O          23.4397   73.0527   -4.8329 O.2     1  UNL1       -0.5170
      3 O          23.6189   75.4486   -5.6057 O.3     1  UNL1       -0.4371
      4 O          22.6885   74.8444   -3.2224 O.3     1  UNL1       -0.3112
      5 C          21.6829   74.0451   -2.5979 C.3     1  UNL1        0.1811
      6 C          22.3085   72.2099    0.4300 C.3     1  UNL1        0.2383
      7 C          21.1653   71.4306   -0.2670 C.3     1  UNL1        0.1895
      8 O          21.2348   70.0378    0.0402 O.3     1  UNL1       -0.3779
      9 C          21.4673   71.6821   -1.7673 C.3     1  UNL1        0.1713
     10 C          22.3468   72.9474   -1.7651 C.3     1  UNL1        0.1764
     11 O          22.4748   73.3793   -0.3998 O.3     1  UNL1       -0.3308
     12 O          22.1749   70.5740   -2.3278 O.3     1  UNL1       -0.3794
     13 H          20.4993   69.6120   -0.4216 H       1  UNL1        0.2106
     14 H          21.5973   69.8035   -2.2457 H       1  UNL1        0.2105
     15 N          21.9234   72.5919    1.7891 N.ar    1  UNL1       -0.2551
     16 C          22.3022   71.8281    2.8285 C.ar    1  UNL1        0.3323
     17 N          21.9655   72.1574    4.0897 N.ar    1  UNL1       -0.2743
     18 C          21.2300   73.2615    4.3304 C.ar    1  UNL1        0.2626
     19 C          20.8194   74.0713    3.2448 C.ar    1  UNL1        0.0795
     20 C          21.1755   73.7207    1.9904 C.ar    1  UNL1        0.0869
     21 O          22.9659   70.8293    2.6276 O.2     1  UNL1       -0.2464
     22 O          20.9210   73.5575    5.4698 O.2     1  UNL1       -0.2670
     23 H          22.2514   71.5975    4.8279 H       1  UNL1        0.1734
     24 O          21.2877   74.2563   -5.3674 O.3     1  UNL1       -0.2703
     25 P          21.2084   72.8454   -6.1371 P.3     1  UNL1        0.2208
     26 O          21.4924   71.7483   -5.1861 O.2     1  UNL1       -0.5170
     27 O          22.2949   72.8196   -7.3250 O.3     1  UNL1       -0.4371
     28 O          19.7350   72.6519   -6.7552 O.3     1  UNL1       -0.2865
     29 C          18.8054   72.9594   -5.7147 C.3     1  UNL1        0.2611
     30 C          17.8712   71.7666   -5.5034 C.3     1  UNL1        0.1582
     31 C          17.1361   71.4673   -6.8148 C.3     1  UNL1        0.1625
     32 C          16.4546   72.7515   -7.2989 C.3     1  UNL1        0.1686
     33 C          17.4966   73.8693   -7.3777 C.3     1  UNL1        0.1760
     34 O          16.1533   70.4543   -6.5923 O.3     1  UNL1       -0.3801
     35 O          15.8872   72.5332   -8.5919 O.3     1  UNL1       -0.3794
     36 O          18.0457   74.1087   -6.0824 O.3     1  UNL1       -0.3263
     37 H          15.7166   70.2976   -7.4409 H       1  UNL1        0.2105
     38 H          15.4702   73.3649   -8.8584 H       1  UNL1        0.2105
     39 C          18.4547   70.0331   -3.8945 C.2     1  UNL1        0.2231
     40 C          19.2613   68.8286   -3.4812 C.3     1  UNL1        0.0946
     41 N          18.6541   70.5962   -5.1017 N.am    1  UNL1       -0.2994
     42 O          17.6262   70.4961   -3.1398 O.2     1  UNL1       -0.2751
     43 H          19.3172   70.2261   -5.7058 H       1  UNL1        0.1496
     44 C          16.8325   75.1485   -7.8914 C.3     1  UNL1        0.1693
     45 O          17.5918   75.6750   -8.9816 O.3     1  UNL1       -0.3794
     46 H          17.1406   76.4783   -9.2746 H       1  UNL1        0.2105
@<TRIPOS>BOND
     1    29    30    1
     2    29    28    1
     3    29    36    1
     4    30    31    1
     5    30    41    1
     6    31    32    1
     7    31    34    1
     8    32    33    1
     9    32    35    1
    10    33    44    1
    11    33    36    1
    12    44    45    1
    13    39    40    1
    14    39    41   am
    15    39    42    2
    16    41    43    1
    17    28    25    1
    18    34    37    1
    19    35    38    1
    20    45    46    1
    21    15    16   ar
    22    15    20   ar
    23    15     6    1
    24    16    17   ar
    25    16    21    2
    26    17    18   ar
    27    17    23    1
    28    18    19   ar
    29    18    22    2
    30    19    20   ar
    31     6     7    1
    32     6    11    1
    33     7     8    1
    34     7     9    1
    35     8    13    1
    36     9    10    1
    37     9    12    1
    38    10    11    1
    39    10     5    1
    40    12    14    1
    41     5     4    1
    42     4     1    1
    43     1     2    2
    44     1     3    1
    45     1    24    1
    46    24    25    1
    47    25    26    2
    48    25    27    1
