@<TRIPOS>MOLECULE
*****
 43 45 0 0 0
SMALL
GASTEIGER

@<TRIPOS>ATOM
      1 P          22.8443   71.7111   -2.4135 P.3     1  UNL1        0.2189
      2 O          23.4470   73.1633   -2.7948 O.co2   1  UNL1       -0.4371
      3 O          23.3949   70.5667   -3.2126 O.2     1  UNL1       -0.5170
      4 O          21.2422   71.9210   -2.4987 O.3     1  UNL1       -0.3112
      5 C          20.5380   71.3220   -3.5726 C.3     1  UNL1        0.1811
      6 O          18.6130   72.1603   -4.7411 O.3     1  UNL1       -0.3308
      7 O          16.9816   70.9666   -2.5265 O.3     1  UNL1       -0.3794
      8 O          16.7144   69.1256   -4.5204 O.3     1  UNL1       -0.3779
      9 C          18.1791   70.4784   -3.1291 C.3     1  UNL1        0.1713
     10 C          17.8846   69.9175   -4.5047 C.3     1  UNL1        0.1895
     11 C          19.0618   71.6763   -3.4563 C.3     1  UNL1        0.1764
     12 C          17.7469   71.1808   -5.3372 C.3     1  UNL1        0.2383
     13 H          16.4018   70.2195   -2.3082 H       1  UNL1        0.2105
     14 H          16.8520   68.3342   -3.9769 H       1  UNL1        0.2106
     15 O          15.9998   70.3457   -7.3935 O.2     1  UNL1       -0.2464
     16 O          19.3630   70.4479  -10.5431 O.2     1  UNL1       -0.2670
     17 N          18.1393   70.9815   -6.7039 N.ar    1  UNL1       -0.2551
     18 N          17.6758   70.3975   -8.9601 N.ar    1  UNL1       -0.2743
     19 C          17.1846   70.5599   -7.6584 C.ar    1  UNL1        0.3323
     20 C          19.4578   71.2040   -7.0858 C.ar    1  UNL1        0.0869
     21 C          19.9106   71.0433   -8.3310 C.ar    1  UNL1        0.0795
     22 C          18.9774   70.6048   -9.3887 C.ar    1  UNL1        0.2626
     23 H          17.0288   70.1040   -9.6420 H       1  UNL1        0.1734
     24 O          23.1137   71.6120   -0.8228 O.3     1  UNL1       -0.2703
     25 P          22.4013   70.7190    0.3209 P.3     1  UNL1        0.2208
     26 O          23.4204   69.4767    0.5101 O.co2   1  UNL1       -0.4371
     27 O          20.9904   70.3192   -0.0004 O.2     1  UNL1       -0.5170
     28 O          22.5594   71.5855    1.6734 O.3     1  UNL1       -0.2858
     29 O          21.5747   72.3441    3.6912 O.3     1  UNL1       -0.3258
     30 O          21.3827   75.8432    1.5070 O.3     1  UNL1       -0.3794
     31 O          23.2775   75.6133    3.6530 O.3     1  UNL1       -0.3794
     32 O          20.8905   73.3026    0.2099 O.3     1  UNL1       -0.3775
     33 C          21.9544   74.6040    1.9349 C.3     1  UNL1        0.1715
     34 C          22.2133   74.6899    3.4404 C.3     1  UNL1        0.1694
     35 C          20.9804   73.4701    1.6207 C.3     1  UNL1        0.1967
     36 C          22.5748   73.3155    4.0196 C.3     1  UNL1        0.1761
     37 C          21.4066   72.1593    2.2842 C.3     1  UNL1        0.2704
     38 H          21.9964   76.5673    1.7032 H       1  UNL1        0.2105
     39 H          23.0367   76.4769    3.2822 H       1  UNL1        0.2105
     40 H          20.6196   74.1391   -0.1983 H       1  UNL1        0.2106
     41 O          21.4198   73.7009    6.0754 O.3     1  UNL1       -0.3794
     42 C          22.6829   73.3471    5.5425 C.3     1  UNL1        0.1693
     43 H          21.4734   73.7247    7.0440 H       1  UNL1        0.2105
@<TRIPOS>UNITY_ATOM_ATTR
2 1
charge -1
26 1
charge -1
@<TRIPOS>BOND
     1    25    28    1
     2    25    24    1
     3    25    26    1
     4    25    27    2
     5     1     4    1
     6     1    24    1
     7     1     2    1
     8     1     3    2
     9     6    11    1
    10     6    12    1
    11    29    36    1
    12    29    37    1
    13     7     9    1
    14     7    13    1
    15     8    10    1
    16     8    14    1
    17    28    37    1
    18     4     5    1
    19    30    33    1
    20    30    38    1
    21    31    34    1
    22    31    39    1
    23    32    35    1
    24    32    40    1
    25    41    42    1
    26    41    43    1
    27    15    19    2
    28    16    22    2
    29    17    12    1
    30    17    19   ar
    31    17    20   ar
    32    18    19   ar
    33    18    22   ar
    34    18    23    1
    35     9    10    1
    36     9    11    1
    37    10    12    1
    38    11     5    1
    39    33    34    1
    40    33    35    1
    41    34    36    1
    42    35    37    1
    43    36    42    1
    44    20    21   ar
    45    21    22   ar
@<TRIPOS>MOLECULE
*****
 43 45 0 0 0
SMALL
GASTEIGER

@<TRIPOS>ATOM
      1 P          22.7894   71.8329   -2.2364 P.3     1  UNL1        0.2189
      2 O          23.5028   73.2787   -2.3716 O.co2   1  UNL1       -0.4371
      3 O          23.3638   70.7584   -3.1121 O.2     1  UNL1       -0.5170
      4 O          21.2186   72.1529   -2.4553 O.3     1  UNL1       -0.3112
      5 C          20.5331   71.4896   -3.5032 C.3     1  UNL1        0.1811
      6 O          18.5756   72.2380   -4.6786 O.3     1  UNL1       -0.3308
      7 O          16.9945   71.0099   -2.4464 O.3     1  UNL1       -0.3794
      8 O          16.7961   69.1352   -4.4168 O.3     1  UNL1       -0.3779
      9 C          18.2092   70.5609   -3.0450 C.3     1  UNL1        0.1713
     10 C          17.9349   69.9719   -4.4129 C.3     1  UNL1        0.1895
     11 C          19.0445   71.7879   -3.3887 C.3     1  UNL1        0.1764
     12 C          17.7473   71.2184   -5.2609 C.3     1  UNL1        0.2383
     13 H          16.4444   70.2437   -2.2178 H       1  UNL1        0.2105
     14 H          16.9650   68.3565   -3.8636 H       1  UNL1        0.2106
     15 O          16.0299   70.2949   -7.3044 O.2     1  UNL1       -0.2464
     16 O          19.3836   70.4834  -10.4601 O.2     1  UNL1       -0.2670
     17 N          18.1452   71.0174   -6.6257 N.ar    1  UNL1       -0.2551
     18 N          17.7012   70.3897   -8.8741 N.ar    1  UNL1       -0.2743
     19 C          17.2057   70.5494   -7.5737 C.ar    1  UNL1        0.3323
     20 C          19.4542   71.2838   -7.0123 C.ar    1  UNL1        0.0869
     21 C          19.9112   71.1250   -8.2561 C.ar    1  UNL1        0.0795
     22 C          18.9937   70.6398   -9.3071 C.ar    1  UNL1        0.2626
     23 H          17.0646   70.0643   -9.5514 H       1  UNL1        0.1734
     24 O          22.8809   71.5294   -0.6513 O.3     1  UNL1       -0.2703
     25 P          22.0387   70.5168    0.2860 P.3     1  UNL1        0.2208
     26 O          23.1891   69.6575    1.0313 O.co2   1  UNL1       -0.4371
     27 O          21.0290   69.6886   -0.4547 O.2     1  UNL1       -0.5170
     28 O          21.4157   71.4539    1.4430 O.3     1  UNL1       -0.2858
     29 O          21.7925   73.7270    0.8883 O.3     1  UNL1       -0.3258
     30 O          20.1767   74.2262    4.6554 O.3     1  UNL1       -0.3794
     31 O          18.6247   74.9264    2.3427 O.3     1  UNL1       -0.3794
     32 O          21.9721   72.0157    4.1356 O.3     1  UNL1       -0.3775
     33 C          20.3314   73.6069    3.3756 C.3     1  UNL1        0.1715
     34 C          20.0214   74.6482    2.2984 C.3     1  UNL1        0.1694
     35 C          21.7655   73.0998    3.2364 C.3     1  UNL1        0.1967
     36 C          20.4214   74.1411    0.9063 C.3     1  UNL1        0.1761
     37 C          22.0745   72.6656    1.8025 C.3     1  UNL1        0.2704
     38 H          19.2681   74.5499    4.7504 H       1  UNL1        0.2105
     39 H          18.3852   75.2453    3.2271 H       1  UNL1        0.2105
     40 H          21.7735   72.3034    5.0399 H       1  UNL1        0.2106
     41 O          18.9194   75.2381   -0.5935 O.3     1  UNL1       -0.3794
     42 C          20.2677   75.2215   -0.1619 C.3     1  UNL1        0.1693
     43 H          18.8066   75.9213   -1.2734 H       1  UNL1        0.2105
@<TRIPOS>UNITY_ATOM_ATTR
2 1
charge -1
26 1
charge -1
@<TRIPOS>BOND
     1    25    28    1
     2    25    24    1
     3    25    26    1
     4    25    27    2
     5     1     4    1
     6     1    24    1
     7     1     2    1
     8     1     3    2
     9     6    11    1
    10     6    12    1
    11    29    36    1
    12    29    37    1
    13     7     9    1
    14     7    13    1
    15     8    10    1
    16     8    14    1
    17    28    37    1
    18     4     5    1
    19    30    33    1
    20    30    38    1
    21    31    34    1
    22    31    39    1
    23    32    35    1
    24    32    40    1
    25    41    42    1
    26    41    43    1
    27    15    19    2
    28    16    22    2
    29    17    12    1
    30    17    19   ar
    31    17    20   ar
    32    18    19   ar
    33    18    22   ar
    34    18    23    1
    35     9    10    1
    36     9    11    1
    37    10    12    1
    38    11     5    1
    39    33    34    1
    40    33    35    1
    41    34    36    1
    42    35    37    1
    43    36    42    1
    44    20    21   ar
    45    21    22   ar
@<TRIPOS>MOLECULE
*****
 43 45 0 0 0
SMALL
GASTEIGER

@<TRIPOS>ATOM
      1 P          22.9120   72.0224   -3.0860 P.3     1  UNL1        0.2189
      2 O          23.6673   70.5978   -3.2178 O.co2   1  UNL1       -0.4371
      3 O          22.7452   72.5237   -1.6816 O.2     1  UNL1       -0.5170
      4 O          21.5443   71.8160   -3.9254 O.3     1  UNL1       -0.3112
      5 C          20.6890   70.7431   -3.5713 C.3     1  UNL1        0.1811
      6 O          18.8746   71.8812   -4.6605 O.3     1  UNL1       -0.3308
      7 O          17.1254   70.7756   -2.4905 O.3     1  UNL1       -0.3794
      8 O          16.6114   69.1001   -4.5797 O.3     1  UNL1       -0.3779
      9 C          18.2467   70.1770   -3.1383 C.3     1  UNL1        0.1713
     10 C          17.8720   69.7372   -4.5383 C.3     1  UNL1        0.1895
     11 C          19.2702   71.2719   -3.4121 C.3     1  UNL1        0.1764
     12 C          17.8870   71.0536   -5.2966 C.3     1  UNL1        0.2383
     13 H          16.4582   70.0956   -2.3052 H       1  UNL1        0.2105
     14 H          16.6532   68.2677   -4.0835 H       1  UNL1        0.2106
     15 O          16.0423   70.4690   -7.3541 O.2     1  UNL1       -0.2464
     16 O          19.3521   70.4296  -10.5610 O.2     1  UNL1       -0.2670
     17 N          18.2393   70.8856   -6.6783 N.ar    1  UNL1       -0.2551
     18 N          17.6918   70.4500   -8.9492 N.ar    1  UNL1       -0.2743
     19 C          17.2368   70.5928   -7.6322 C.ar    1  UNL1        0.3323
     20 C          19.5660   71.0118   -7.0755 C.ar    1  UNL1        0.0869
     21 C          19.9837   70.8714   -8.3353 C.ar    1  UNL1        0.0795
     22 C          18.9996   70.5647   -9.3934 C.ar    1  UNL1        0.2626
     23 H          17.0112   70.2455   -9.6309 H       1  UNL1        0.1734
     24 O          23.7850   72.9869   -4.0454 O.3     1  UNL1       -0.2703
     25 P          23.9707   74.5926   -4.0506 P.3     1  UNL1        0.2208
     26 O          25.5762   74.7807   -3.9818 O.co2   1  UNL1       -0.4371
     27 O          23.2169   75.3028   -2.9638 O.2     1  UNL1       -0.5170
     28 O          23.5711   75.0452   -5.5475 O.3     1  UNL1       -0.2858
     29 O          21.6735   76.1454   -6.4447 O.3     1  UNL1       -0.3258
     30 O          22.2771   73.3424   -9.4161 O.3     1  UNL1       -0.3794
     31 O          22.9063   76.0991   -9.9184 O.3     1  UNL1       -0.3794
     32 O          22.6857   72.6182   -6.6433 O.3     1  UNL1       -0.3775
     33 C          22.6695   74.2675   -8.3985 C.3     1  UNL1        0.1715
     34 C          22.1585   75.6556   -8.7895 C.3     1  UNL1        0.1694
     35 C          22.0666   73.8286   -7.0654 C.3     1  UNL1        0.1967
     36 C          22.3056   76.6476   -7.6279 C.3     1  UNL1        0.1761
     37 C          22.2240   74.9070   -5.9919 C.3     1  UNL1        0.2704
     38 H          22.6570   73.6151  -10.2651 H       1  UNL1        0.2105
     39 H          22.8053   75.4638  -10.6446 H       1  UNL1        0.2105
     40 H          22.5789   71.9435   -7.3313 H       1  UNL1        0.2106
     41 O          22.0358   78.3807   -9.2504 O.3     1  UNL1       -0.3794
     42 C          21.6591   77.9952   -7.9413 C.3     1  UNL1        0.1693
     43 H          21.6313   79.2366   -9.4637 H       1  UNL1        0.2105
@<TRIPOS>UNITY_ATOM_ATTR
2 1
charge -1
26 1
charge -1
@<TRIPOS>BOND
     1    25    28    1
     2    25    24    1
     3    25    26    1
     4    25    27    2
     5     1     4    1
     6     1    24    1
     7     1     2    1
     8     1     3    2
     9     6    11    1
    10     6    12    1
    11    29    36    1
    12    29    37    1
    13     7     9    1
    14     7    13    1
    15     8    10    1
    16     8    14    1
    17    28    37    1
    18     4     5    1
    19    30    33    1
    20    30    38    1
    21    31    34    1
    22    31    39    1
    23    32    35    1
    24    32    40    1
    25    41    42    1
    26    41    43    1
    27    15    19    2
    28    16    22    2
    29    17    12    1
    30    17    19   ar
    31    17    20   ar
    32    18    19   ar
    33    18    22   ar
    34    18    23    1
    35     9    10    1
    36     9    11    1
    37    10    12    1
    38    11     5    1
    39    33    34    1
    40    33    35    1
    41    34    36    1
    42    35    37    1
    43    36    42    1
    44    20    21   ar
    45    21    22   ar
@<TRIPOS>MOLECULE
*****
 43 45 0 0 0
SMALL
GASTEIGER

@<TRIPOS>ATOM
      1 P          22.5989   72.8779   -4.3465 P.3     1  UNL1        0.2189
      2 O          22.7737   72.8943   -5.9548 O.co2   1  UNL1       -0.4371
      3 O          23.3656   71.8009   -3.6367 O.2     1  UNL1       -0.5170
      4 O          20.9956   72.8580   -4.1303 O.3     1  UNL1       -0.3112
      5 C          20.4192   71.7591   -3.4461 C.3     1  UNL1        0.1811
      6 O          18.4331   72.3890   -4.6429 O.3     1  UNL1       -0.3308
      7 O          16.9043   71.0774   -2.4219 O.3     1  UNL1       -0.3794
      8 O          16.8346   69.1886   -4.3877 O.3     1  UNL1       -0.3779
      9 C          18.1488   70.6981   -3.0072 C.3     1  UNL1        0.1713
     10 C          17.9226   70.0902   -4.3757 C.3     1  UNL1        0.1895
     11 C          18.9147   71.9706   -3.3470 C.3     1  UNL1        0.1764
     12 C          17.6712   71.3213   -5.2297 C.3     1  UNL1        0.2383
     13 H          16.3974   70.2811   -2.1959 H       1  UNL1        0.2105
     14 H          17.0430   68.4227   -3.8303 H       1  UNL1        0.2106
     15 O          16.0242   70.3134   -7.2911 O.2     1  UNL1       -0.2464
     16 O          19.3989   70.6669  -10.4101 O.2     1  UNL1       -0.2670
     17 N          18.0936   71.1399   -6.5899 N.ar    1  UNL1       -0.2551
     18 N          17.7058   70.4904   -8.8425 N.ar    1  UNL1       -0.2743
     19 C          17.1888   70.6258   -7.5477 C.ar    1  UNL1        0.3323
     20 C          19.3920   71.4706   -6.9623 C.ar    1  UNL1        0.0869
     21 C          19.8699   71.3344   -8.2010 C.ar    1  UNL1        0.0795
     22 C          18.9891   70.8040   -9.2616 C.ar    1  UNL1        0.2626
     23 H          17.0937   70.1338   -9.5265 H       1  UNL1        0.1734
     24 O          23.0042   74.3839   -3.9215 O.3     1  UNL1       -0.2703
     25 P          24.2725   74.9482   -3.0933 P.3     1  UNL1        0.2208
     26 O          24.0974   76.5534   -3.1947 O.co2   1  UNL1       -0.4371
     27 O          25.5993   74.4382   -3.5767 O.2     1  UNL1       -0.5170
     28 O          23.9426   74.5987   -1.5525 O.3     1  UNL1       -0.2858
     29 O          22.0861   73.3696   -0.7407 O.3     1  UNL1       -0.3258
     30 O          22.6434   75.9154    2.4622 O.3     1  UNL1       -0.3794
     31 O          23.3544   73.1442    2.7132 O.3     1  UNL1       -0.3794
     32 O          23.0019   76.8930   -0.2388 O.3     1  UNL1       -0.3775
     33 C          23.0504   75.0953    1.3635 C.3     1  UNL1        0.1715
     34 C          22.5824   73.6641    1.6342 C.3     1  UNL1        0.1694
     35 C          22.4213   75.6329    0.0795 C.3     1  UNL1        0.1967
     36 C          22.7445   72.7832    0.3881 C.3     1  UNL1        0.1761
     37 C          22.5971   74.6584   -1.0866 C.3     1  UNL1        0.2704
     38 H          23.0398   75.5798    3.2805 H       1  UNL1        0.2105
     39 H          23.2436   73.7098    3.4936 H       1  UNL1        0.2105
     40 H          22.8837   77.5010    0.5071 H       1  UNL1        0.2106
     41 O          21.2745   71.4378    1.7063 O.3     1  UNL1       -0.3794
     42 C          22.1392   71.3952    0.5862 C.3     1  UNL1        0.1693
     43 H          20.8817   70.5612    1.8443 H       1  UNL1        0.2105
@<TRIPOS>UNITY_ATOM_ATTR
2 1
charge -1
26 1
charge -1
@<TRIPOS>BOND
     1    25    28    1
     2    25    24    1
     3    25    26    1
     4    25    27    2
     5     1     4    1
     6     1    24    1
     7     1     2    1
     8     1     3    2
     9     6    11    1
    10     6    12    1
    11    29    36    1
    12    29    37    1
    13     7     9    1
    14     7    13    1
    15     8    10    1
    16     8    14    1
    17    28    37    1
    18     4     5    1
    19    30    33    1
    20    30    38    1
    21    31    34    1
    22    31    39    1
    23    32    35    1
    24    32    40    1
    25    41    42    1
    26    41    43    1
    27    15    19    2
    28    16    22    2
    29    17    12    1
    30    17    19   ar
    31    17    20   ar
    32    18    19   ar
    33    18    22   ar
    34    18    23    1
    35     9    10    1
    36     9    11    1
    37    10    12    1
    38    11     5    1
    39    33    34    1
    40    33    35    1
    41    34    36    1
    42    35    37    1
    43    36    42    1
    44    20    21   ar
    45    21    22   ar
@<TRIPOS>MOLECULE
*****
 43 45 0 0 0
SMALL
GASTEIGER

@<TRIPOS>ATOM
      1 P          22.2862   71.1224   -2.9138 P.3     1  UNL1        0.2189
      2 O          23.4291   71.8363   -3.8091 O.co2   1  UNL1       -0.4371
      3 O          21.8550   69.7693   -3.3980 O.2     1  UNL1       -0.5170
      4 O          21.1184   72.2378   -2.8134 O.3     1  UNL1       -0.3112
      5 C          20.2275   72.3841   -3.9055 C.3     1  UNL1        0.1811
      6 O          20.7612   73.6953   -5.8471 O.3     1  UNL1       -0.3308
      7 O          19.3441   75.9561   -4.4791 O.3     1  UNL1       -0.3794
      8 O          17.4758   75.0736   -6.2588 O.3     1  UNL1       -0.3779
      9 C          19.0396   74.5624   -4.4687 C.3     1  UNL1        0.1713
     10 C          18.4352   74.1463   -5.7935 C.3     1  UNL1        0.1895
     11 C          20.3556   73.7946   -4.4643 C.3     1  UNL1        0.1764
     12 C          19.6599   74.0728   -6.6894 C.3     1  UNL1        0.2383
     13 H          18.5190   76.4671   -4.4817 H       1  UNL1        0.2105
     14 H          16.7164   75.0836   -5.6556 H       1  UNL1        0.2106
     15 O          18.2199   74.4986   -9.0817 O.2     1  UNL1       -0.2464
     16 O          19.1761   70.2629  -10.6264 O.2     1  UNL1       -0.2670
     17 N          19.5166   73.0986   -7.7342 N.ar    1  UNL1       -0.2551
     18 N          18.6973   72.3893   -9.8490 N.ar    1  UNL1       -0.2743
     19 C          18.7718   73.4122   -8.8950 C.ar    1  UNL1        0.3323
     20 C          20.1111   71.8484   -7.6023 C.ar    1  UNL1        0.0869
     21 C          20.0295   70.8833   -8.5206 C.ar    1  UNL1        0.0795
     22 C          19.2697   71.1300   -9.7631 C.ar    1  UNL1        0.2626
     23 H          18.1833   72.5850  -10.6658 H       1  UNL1        0.1734
     24 O          22.9274   71.1331   -1.4300 O.3     1  UNL1       -0.2703
     25 P          22.3634   70.5648   -0.0257 P.3     1  UNL1        0.2208
     26 O          23.5090   69.5212    0.4392 O.co2   1  UNL1       -0.4371
     27 O          20.9854   69.9749   -0.1096 O.2     1  UNL1       -0.5170
     28 O          22.4995   71.8032    1.0004 O.3     1  UNL1       -0.2858
     29 O          20.9177   72.9980    2.2992 O.3     1  UNL1       -0.3258
     30 O          23.2630   76.1570    1.0458 O.3     1  UNL1       -0.3794
     31 O          23.4012   75.2854    3.7788 O.3     1  UNL1       -0.3794
     32 O          22.6918   73.9741   -0.7676 O.3     1  UNL1       -0.3775
     33 C          23.0010   74.8159    1.4679 C.3     1  UNL1        0.1715
     34 C          22.3883   74.8651    2.8689 C.3     1  UNL1        0.1694
     35 C          22.0352   74.1618    0.4815 C.3     1  UNL1        0.1967
     36 C          21.8359   73.4938    3.2805 C.3     1  UNL1        0.1761
     37 C          21.5074   72.8264    1.0090 C.3     1  UNL1        0.2704
     38 H          23.8760   76.5778    1.6676 H       1  UNL1        0.2105
     39 H          23.7420   76.1522    3.5073 H       1  UNL1        0.2105
     40 H          23.0211   74.8266   -1.0910 H       1  UNL1        0.2106
     41 O          21.7928   72.7949    5.5649 O.3     1  UNL1       -0.3794
     42 C          21.0810   73.5559    4.6066 C.3     1  UNL1        0.1693
     43 H          21.3242   72.8255    6.4141 H       1  UNL1        0.2105
@<TRIPOS>UNITY_ATOM_ATTR
2 1
charge -1
26 1
charge -1
@<TRIPOS>BOND
     1    25    28    1
     2    25    24    1
     3    25    26    1
     4    25    27    2
     5     1     4    1
     6     1    24    1
     7     1     2    1
     8     1     3    2
     9     6    11    1
    10     6    12    1
    11    29    36    1
    12    29    37    1
    13     7     9    1
    14     7    13    1
    15     8    10    1
    16     8    14    1
    17    28    37    1
    18     4     5    1
    19    30    33    1
    20    30    38    1
    21    31    34    1
    22    31    39    1
    23    32    35    1
    24    32    40    1
    25    41    42    1
    26    41    43    1
    27    15    19    2
    28    16    22    2
    29    17    12    1
    30    17    19   ar
    31    17    20   ar
    32    18    19   ar
    33    18    22   ar
    34    18    23    1
    35     9    10    1
    36     9    11    1
    37    10    12    1
    38    11     5    1
    39    33    34    1
    40    33    35    1
    41    34    36    1
    42    35    37    1
    43    36    42    1
    44    20    21   ar
    45    21    22   ar
@<TRIPOS>MOLECULE
*****
 43 45 0 0 0
SMALL
GASTEIGER

@<TRIPOS>ATOM
      1 P          22.5983   72.8999   -4.3799 P.3     1  UNL1        0.2189
      2 O          22.7670   72.8291   -5.9873 O.co2   1  UNL1       -0.4371
      3 O          23.3798   71.8725   -3.6148 O.2     1  UNL1       -0.5170
      4 O          20.9961   72.8742   -4.1559 O.3     1  UNL1       -0.3112
      5 C          20.4294   71.7835   -3.4508 C.3     1  UNL1        0.1811
      6 O          18.4350   72.4230   -4.6286 O.3     1  UNL1       -0.3308
      7 O          16.9218   71.0885   -2.4105 O.3     1  UNL1       -0.3794
      8 O          16.8412   69.2186   -4.3938 O.3     1  UNL1       -0.3779
      9 C          18.1629   70.7161   -3.0074 C.3     1  UNL1        0.1713
     10 C          17.9285   70.1211   -4.3802 C.3     1  UNL1        0.1895
     11 C          18.9254   71.9926   -3.3399 C.3     1  UNL1        0.1764
     12 C          17.6704   71.3601   -5.2207 C.3     1  UNL1        0.2383
     13 H          16.4172   70.2896   -2.1890 H       1  UNL1        0.2105
     14 H          17.0540   68.4476   -3.8452 H       1  UNL1        0.2106
     15 O          16.0392   70.2887   -7.2625 O.2     1  UNL1       -0.2464
     16 O          19.3638   70.7615  -10.4191 O.2     1  UNL1       -0.2670
     17 N          18.0842   71.1922   -6.5853 N.ar    1  UNL1       -0.2551
     18 N          17.6959   70.5252   -8.8326 N.ar    1  UNL1       -0.2743
     19 C          17.1885   70.6435   -7.5324 C.ar    1  UNL1        0.3323
     20 C          19.3652   71.5702   -6.9725 C.ar    1  UNL1        0.0869
     21 C          19.8342   71.4496   -8.2162 C.ar    1  UNL1        0.0795
     22 C          18.9619   70.8853   -9.2663 C.ar    1  UNL1        0.2626
     23 H          17.0898   70.1450   -9.5094 H       1  UNL1        0.1734
     24 O          22.9881   74.4315   -4.0406 O.3     1  UNL1       -0.2703
     25 P          23.4944   75.1189   -2.6679 P.3     1  UNL1        0.2208
     26 O          22.8084   76.5836   -2.7115 O.co2   1  UNL1       -0.4371
     27 O          24.9865   75.1386   -2.5035 O.2     1  UNL1       -0.5170
     28 O          22.7032   74.3328   -1.5013 O.3     1  UNL1       -0.2858
     29 O          23.4036   74.9134    0.6870 O.3     1  UNL1       -0.3258
     30 O          21.1738   71.5540    1.5775 O.3     1  UNL1       -0.3794
     31 O          20.1578   74.1521    2.2598 O.3     1  UNL1       -0.3794
     32 O          22.8025   71.6136   -0.8148 O.3     1  UNL1       -0.3775
     33 C          21.5007   72.7493    0.8635 C.3     1  UNL1        0.1715
     34 C          21.5031   73.9146    1.8549 C.3     1  UNL1        0.1694
     35 C          22.8772   72.5866    0.2216 C.3     1  UNL1        0.1967
     36 C          22.1019   75.1783    1.2229 C.3     1  UNL1        0.1761
     37 C          23.4022   73.9123   -0.3326 C.3     1  UNL1        0.2704
     38 H          20.3007   71.6505    1.9872 H       1  UNL1        0.2105
     39 H          19.7912   73.3463    2.6567 H       1  UNL1        0.2105
     40 H          22.4692   70.7790   -0.4512 H       1  UNL1        0.2106
     41 O          21.9035   75.8129    3.5178 O.3     1  UNL1       -0.3794
     42 C          22.2593   76.3068    2.2397 C.3     1  UNL1        0.1693
     43 H          21.9991   76.5202    4.1753 H       1  UNL1        0.2105
@<TRIPOS>UNITY_ATOM_ATTR
2 1
charge -1
26 1
charge -1
@<TRIPOS>BOND
     1    25    28    1
     2    25    24    1
     3    25    26    1
     4    25    27    2
     5     1     4    1
     6     1    24    1
     7     1     2    1
     8     1     3    2
     9     6    11    1
    10     6    12    1
    11    29    36    1
    12    29    37    1
    13     7     9    1
    14     7    13    1
    15     8    10    1
    16     8    14    1
    17    28    37    1
    18     4     5    1
    19    30    33    1
    20    30    38    1
    21    31    34    1
    22    31    39    1
    23    32    35    1
    24    32    40    1
    25    41    42    1
    26    41    43    1
    27    15    19    2
    28    16    22    2
    29    17    12    1
    30    17    19   ar
    31    17    20   ar
    32    18    19   ar
    33    18    22   ar
    34    18    23    1
    35     9    10    1
    36     9    11    1
    37    10    12    1
    38    11     5    1
    39    33    34    1
    40    33    35    1
    41    34    36    1
    42    35    37    1
    43    36    42    1
    44    20    21   ar
    45    21    22   ar
@<TRIPOS>MOLECULE
*****
 43 45 0 0 0
SMALL
GASTEIGER

@<TRIPOS>ATOM
      1 P          22.7627   72.7683   -3.9568 P.3     1  UNL1        0.2189
      2 O          22.7931   72.8689   -5.5713 O.co2   1  UNL1       -0.4371
      3 O          23.5417   71.6238   -3.3783 O.2     1  UNL1       -0.5170
      4 O          21.1859   72.7988   -3.5954 O.3     1  UNL1       -0.3112
      5 C          20.5013   71.5666   -3.4514 C.3     1  UNL1        0.1811
      6 O          18.5365   72.3535   -4.5890 O.3     1  UNL1       -0.3308
      7 O          16.9672   70.9884   -2.4293 O.3     1  UNL1       -0.3794
      8 O          16.7943   69.2199   -4.4979 O.3     1  UNL1       -0.3779
      9 C          18.1880   70.5868   -3.0486 C.3     1  UNL1        0.1713
     10 C          17.9228   70.0688   -4.4468 C.3     1  UNL1        0.1895
     11 C          19.0089   71.8404   -3.3242 C.3     1  UNL1        0.1764
     12 C          17.7214   71.3568   -5.2270 C.3     1  UNL1        0.2383
     13 H          16.4260   70.2045   -2.2433 H       1  UNL1        0.2105
     14 H          16.9718   68.4148   -3.9870 H       1  UNL1        0.2106
     15 O          16.0711   71.9734   -7.4347 O.2     1  UNL1       -0.2464
     16 O          19.3704   70.8467  -10.4491 O.2     1  UNL1       -0.2670
     17 N          18.1238   71.2341   -6.5998 N.ar    1  UNL1       -0.2551
     18 N          17.7153   71.4121   -8.9338 N.ar    1  UNL1       -0.2743
     19 C          17.2184   71.5688   -7.6336 C.ar    1  UNL1        0.3323
     20 C          19.4035   70.7867   -6.9095 C.ar    1  UNL1        0.0869
     21 C          19.8615   70.6415   -8.1546 C.ar    1  UNL1        0.0795
     22 C          18.9788   70.9697   -9.2926 C.ar    1  UNL1        0.2626
     23 H          17.1021   71.6388   -9.6703 H       1  UNL1        0.1734
     24 O          23.2704   74.2308   -3.4919 O.3     1  UNL1       -0.2703
     25 P          23.9809   75.4215   -4.3227 P.3     1  UNL1        0.2208
     26 O          23.7538   76.7176   -3.3814 O.co2   1  UNL1       -0.4371
     27 O          23.4740   75.5796   -5.7270 O.2     1  UNL1       -0.5170
     28 O          25.5607   75.1099   -4.2130 O.3     1  UNL1       -0.2858
     29 O          27.3569   76.2285   -3.1456 O.3     1  UNL1       -0.3258
     30 O          29.2376   75.1699   -6.6660 O.3     1  UNL1       -0.3794
     31 O          29.9148   73.8061   -4.2310 O.3     1  UNL1       -0.3794
     32 O          26.4711   76.0210   -6.7062 O.3     1  UNL1       -0.3775
     33 C          28.3344   75.0023   -5.5698 C.3     1  UNL1        0.1715
     34 C          29.1475   75.0060   -4.2738 C.3     1  UNL1        0.1694
     35 C          27.3253   76.1490   -5.5747 C.3     1  UNL1        0.1967
     36 C          28.2319   75.0988   -3.0457 C.3     1  UNL1        0.1761
     37 C          26.4992   76.1799   -4.2876 C.3     1  UNL1        0.2704
     38 H          29.8807   74.4447   -6.6690 H       1  UNL1        0.2105
     39 H          30.4882   73.7595   -5.0122 H       1  UNL1        0.2105
     40 H          27.0059   76.0029   -7.5146 H       1  UNL1        0.2106
     41 O          29.7245   74.0579   -1.4974 O.3     1  UNL1       -0.3794
     42 C          29.0258   75.2626   -1.7515 C.3     1  UNL1        0.1693
     43 H          30.2346   74.1475   -0.6767 H       1  UNL1        0.2105
@<TRIPOS>UNITY_ATOM_ATTR
2 1
charge -1
26 1
charge -1
@<TRIPOS>BOND
     1    25    28    1
     2    25    24    1
     3    25    26    1
     4    25    27    2
     5     1     4    1
     6     1    24    1
     7     1     2    1
     8     1     3    2
     9     6    11    1
    10     6    12    1
    11    29    36    1
    12    29    37    1
    13     7     9    1
    14     7    13    1
    15     8    10    1
    16     8    14    1
    17    28    37    1
    18     4     5    1
    19    30    33    1
    20    30    38    1
    21    31    34    1
    22    31    39    1
    23    32    35    1
    24    32    40    1
    25    41    42    1
    26    41    43    1
    27    15    19    2
    28    16    22    2
    29    17    12    1
    30    17    19   ar
    31    17    20   ar
    32    18    19   ar
    33    18    22   ar
    34    18    23    1
    35     9    10    1
    36     9    11    1
    37    10    12    1
    38    11     5    1
    39    33    34    1
    40    33    35    1
    41    34    36    1
    42    35    37    1
    43    36    42    1
    44    20    21   ar
    45    21    22   ar
@<TRIPOS>MOLECULE
*****
 43 45 0 0 0
SMALL
GASTEIGER

@<TRIPOS>ATOM
      1 P          22.1214   73.2672   -5.1502 P.3     1  UNL1        0.2189
      2 O          22.8674   74.4363   -5.9834 O.co2   1  UNL1       -0.4371
      3 O          23.0327   72.2420   -4.5422 O.2     1  UNL1       -0.5170
      4 O          21.0149   72.6985   -6.1847 O.3     1  UNL1       -0.3112
      5 C          20.7091   73.4651   -7.3365 C.3     1  UNL1        0.1811
      6 O          19.9445   71.2370   -7.8111 O.3     1  UNL1       -0.3308
      7 O          18.3736   72.4553  -10.0558 O.3     1  UNL1       -0.3794
      8 O          16.4800   72.1096   -8.1242 O.3     1  UNL1       -0.3779
      9 C          18.6569   72.9847   -8.7617 C.3     1  UNL1        0.1713
     10 C          17.8204   72.2833   -7.7120 C.3     1  UNL1        0.1895
     11 C          20.0691   72.5591   -8.3795 C.3     1  UNL1        0.1764
     12 C          18.5579   70.9649   -7.5505 C.3     1  UNL1        0.2383
     13 H          17.4768   72.7143  -10.3217 H       1  UNL1        0.2105
     14 H          16.0538   72.9764   -8.2126 H       1  UNL1        0.2106
     15 O          16.2422   69.6790   -6.5696 O.2     1  UNL1       -0.2464
     16 O          18.1785   68.9307   -2.4547 O.2     1  UNL1       -0.2670
     17 N          18.4295   70.4241   -6.2267 N.ar    1  UNL1       -0.2551
     18 N          17.2083   69.3073   -4.5216 N.ar    1  UNL1       -0.2743
     19 C          17.2235   69.7989   -5.8331 C.ar    1  UNL1        0.3323
     20 C          19.4923   70.5162   -5.3345 C.ar    1  UNL1        0.0869
     21 C          19.4613   70.0435   -4.0868 C.ar    1  UNL1        0.0795
     22 C          18.2382   69.3758   -3.5967 C.ar    1  UNL1        0.2626
     23 H          16.3783   68.8680   -4.2251 H       1  UNL1        0.1734
     24 O          21.2308   74.0928   -4.0834 O.3     1  UNL1       -0.2703
     25 P          21.5849   74.6434   -2.6054 P.3     1  UNL1        0.2208
     26 O          20.2719   75.4990   -2.2037 O.co2   1  UNL1       -0.4371
     27 O          22.8724   75.4115   -2.5270 O.2     1  UNL1       -0.5170
     28 O          21.5262   73.3379   -1.6582 O.3     1  UNL1       -0.2858
     29 O          23.1252   73.4622    0.0866 O.3     1  UNL1       -0.3258
     30 O          21.9015   69.5507    0.5904 O.3     1  UNL1       -0.3794
     31 O          21.0993   71.5439    2.4960 O.3     1  UNL1       -0.3794
     32 O          22.1865   70.6425   -2.0754 O.3     1  UNL1       -0.3775
     33 C          21.7400   70.9358    0.2732 C.3     1  UNL1        0.1715
     34 C          22.1065   71.7571    1.5109 C.3     1  UNL1        0.1694
     35 C          22.6552   71.2899   -0.8974 C.3     1  UNL1        0.1967
     36 C          22.2158   73.2500    1.1728 C.3     1  UNL1        0.1761
     37 C          22.7311   72.8018   -1.1178 C.3     1  UNL1        0.2704
     38 H          21.3227   69.3192    1.3326 H       1  UNL1        0.2105
     39 H          21.0402   70.5974    2.7001 H       1  UNL1        0.2105
     40 H          22.1433   69.6861   -1.9231 H       1  UNL1        0.2106
     41 O          23.3116   73.1817    3.2949 O.3     1  UNL1       -0.3794
     42 C          22.7334   74.0677    2.3541 C.3     1  UNL1        0.1693
     43 H          23.6457   73.6882    4.0522 H       1  UNL1        0.2105
@<TRIPOS>UNITY_ATOM_ATTR
2 1
charge -1
26 1
charge -1
@<TRIPOS>BOND
     1    25    28    1
     2    25    24    1
     3    25    26    1
     4    25    27    2
     5     1     4    1
     6     1    24    1
     7     1     2    1
     8     1     3    2
     9     6    11    1
    10     6    12    1
    11    29    36    1
    12    29    37    1
    13     7     9    1
    14     7    13    1
    15     8    10    1
    16     8    14    1
    17    28    37    1
    18     4     5    1
    19    30    33    1
    20    30    38    1
    21    31    34    1
    22    31    39    1
    23    32    35    1
    24    32    40    1
    25    41    42    1
    26    41    43    1
    27    15    19    2
    28    16    22    2
    29    17    12    1
    30    17    19   ar
    31    17    20   ar
    32    18    19   ar
    33    18    22   ar
    34    18    23    1
    35     9    10    1
    36     9    11    1
    37    10    12    1
    38    11     5    1
    39    33    34    1
    40    33    35    1
    41    34    36    1
    42    35    37    1
    43    36    42    1
    44    20    21   ar
    45    21    22   ar
@<TRIPOS>MOLECULE
*****
 43 45 0 0 0
SMALL
GASTEIGER

@<TRIPOS>ATOM
      1 P          22.6873   72.9406   -3.1172 P.3     1  UNL1        0.2189
      2 O          23.6639   72.5368   -4.3422 O.co2   1  UNL1       -0.4371
      3 O          22.9462   72.2093   -1.8328 O.2     1  UNL1       -0.5170
      4 O          21.2009   72.7728   -3.7339 O.3     1  UNL1       -0.3112
      5 C          20.4981   71.5676   -3.4860 C.3     1  UNL1        0.1811
      6 O          18.5523   72.3261   -4.6744 O.3     1  UNL1       -0.3308
      7 O          16.9502   71.1068   -2.4524 O.3     1  UNL1       -0.3794
      8 O          16.7549   69.2327   -4.4237 O.3     1  UNL1       -0.3779
      9 C          18.1664   70.6513   -3.0429 C.3     1  UNL1        0.1713
     10 C          17.8980   70.0634   -4.4125 C.3     1  UNL1        0.1895
     11 C          19.0104   71.8738   -3.3814 C.3     1  UNL1        0.1764
     12 C          17.7225   71.3107   -5.2620 C.3     1  UNL1        0.2383
     13 H          16.3945   70.3436   -2.2273 H       1  UNL1        0.2105
     14 H          16.9160   68.4533   -3.8693 H       1  UNL1        0.2106
     15 O          16.0331   70.3266   -7.3005 O.2     1  UNL1       -0.2464
     16 O          19.3883   70.5694  -10.4509 O.2     1  UNL1       -0.2670
     17 N          18.1284   71.1072   -6.6241 N.ar    1  UNL1       -0.2551
     18 N          17.7050   70.4485   -8.8676 N.ar    1  UNL1       -0.2743
     19 C          17.2028   70.6077   -7.5697 C.ar    1  UNL1        0.3323
     20 C          19.4313   71.4024   -7.0104 C.ar    1  UNL1        0.0869
     21 C          19.8949   71.2437   -8.2518 C.ar    1  UNL1        0.0795
     22 C          18.9920   70.7265   -9.3002 C.ar    1  UNL1        0.2626
     23 H          17.0783   70.1014   -9.5432 H       1  UNL1        0.1734
     24 O          22.8636   74.5447   -3.0253 O.3     1  UNL1       -0.2703
     25 P          23.1235   75.6516   -4.1743 P.3     1  UNL1        0.2208
     26 O          22.5458   77.0121   -3.5163 O.co2   1  UNL1       -0.4371
     27 O          22.5261   75.3064   -5.5077 O.2     1  UNL1       -0.5170
     28 O          24.7245   75.8549   -4.1912 O.3     1  UNL1       -0.2858
     29 O          26.6659   74.5062   -4.0213 O.3     1  UNL1       -0.3258
     30 O          27.6300   77.4036   -1.2417 O.3     1  UNL1       -0.3794
     31 O          28.9950   77.3523   -3.7680 O.3     1  UNL1       -0.3794
     32 O          24.9019   76.4598   -1.4566 O.3     1  UNL1       -0.3775
     33 C          27.0534   76.8958   -2.4479 C.3     1  UNL1        0.1715
     34 C          28.1727   76.2886   -3.2960 C.3     1  UNL1        0.1694
     35 C          26.0109   75.8363   -2.0953 C.3     1  UNL1        0.1967
     36 C          27.6026   75.4899   -4.4759 C.3     1  UNL1        0.1761
     37 C          25.5462   75.0673   -3.3334 C.3     1  UNL1        0.2704
     38 H          28.2925   78.0771   -1.4585 H       1  UNL1        0.2105
     39 H          29.3482   77.8489   -3.0132 H       1  UNL1        0.2105
     40 H          25.2092   76.9430   -0.6744 H       1  UNL1        0.2106
     41 O          29.5202   74.0740   -4.3109 O.3     1  UNL1       -0.3794
     42 C          28.6935   74.7460   -5.2433 C.3     1  UNL1        0.1693
     43 H          30.2190   73.5959   -4.7851 H       1  UNL1        0.2105
@<TRIPOS>UNITY_ATOM_ATTR
2 1
charge -1
26 1
charge -1
@<TRIPOS>BOND
     1    25    28    1
     2    25    24    1
     3    25    26    1
     4    25    27    2
     5     1     4    1
     6     1    24    1
     7     1     2    1
     8     1     3    2
     9     6    11    1
    10     6    12    1
    11    29    36    1
    12    29    37    1
    13     7     9    1
    14     7    13    1
    15     8    10    1
    16     8    14    1
    17    28    37    1
    18     4     5    1
    19    30    33    1
    20    30    38    1
    21    31    34    1
    22    31    39    1
    23    32    35    1
    24    32    40    1
    25    41    42    1
    26    41    43    1
    27    15    19    2
    28    16    22    2
    29    17    12    1
    30    17    19   ar
    31    17    20   ar
    32    18    19   ar
    33    18    22   ar
    34    18    23    1
    35     9    10    1
    36     9    11    1
    37    10    12    1
    38    11     5    1
    39    33    34    1
    40    33    35    1
    41    34    36    1
    42    35    37    1
    43    36    42    1
    44    20    21   ar
    45    21    22   ar
@<TRIPOS>MOLECULE
*****
 43 45 0 0 0
SMALL
GASTEIGER

@<TRIPOS>ATOM
      1 P          22.6072   73.0449   -4.5185 P.3     1  UNL1        0.2189
      2 O          22.9020   73.0118   -6.1089 O.co2   1  UNL1       -0.4371
      3 O          23.4893   72.1561   -3.6918 O.2     1  UNL1       -0.5170
      4 O          21.0191   72.7543   -4.4117 O.3     1  UNL1       -0.3112
      5 C          20.5803   71.6927   -3.5820 C.3     1  UNL1        0.1811
      6 O          18.4999   72.1561   -4.6914 O.3     1  UNL1       -0.3308
      7 O          17.1791   70.7388   -2.4028 O.3     1  UNL1       -0.3794
      8 O          17.1745   68.8400   -4.3602 O.3     1  UNL1       -0.3779
      9 C          18.4232   70.4567   -3.0416 C.3     1  UNL1        0.1713
     10 C          18.1867   69.8253   -4.3978 C.3     1  UNL1        0.1895
     11 C          19.0695   71.7843   -3.4172 C.3     1  UNL1        0.1764
     12 C          17.8007   71.0279   -5.2421 C.3     1  UNL1        0.2383
     13 H          16.7478   69.9059   -2.1534 H       1  UNL1        0.2105
     14 H          17.4676   68.0961   -3.8111 H       1  UNL1        0.2106
     15 O          15.9957   70.4321   -7.3314 O.2     1  UNL1       -0.2464
     16 O          19.3547   70.4568  -10.4870 O.2     1  UNL1       -0.2670
     17 N          18.1764   70.8735   -6.6193 N.ar    1  UNL1       -0.2551
     18 N          17.6697   70.4451   -8.9010 N.ar    1  UNL1       -0.2743
     19 C          17.1927   70.5735   -7.5902 C.ar    1  UNL1        0.3323
     20 C          19.5072   71.0196   -6.9951 C.ar    1  UNL1        0.0869
     21 C          19.9461   70.8928   -8.2491 C.ar    1  UNL1        0.0795
     22 C          18.9825   70.5798   -9.3242 C.ar    1  UNL1        0.2626
     23 H          17.0024   70.2359   -9.5943 H       1  UNL1        0.1734
     24 O          22.7135   74.6179   -4.1617 O.3     1  UNL1       -0.2703
     25 P          23.8856   75.6941   -4.4463 P.3     1  UNL1        0.2208
     26 O          25.2381   74.8207   -4.2864 O.co2   1  UNL1       -0.4371
     27 O          23.8281   76.9124   -3.5709 O.2     1  UNL1       -0.5170
     28 O          23.7832   76.0011   -6.0275 O.3     1  UNL1       -0.2858
     29 O          25.2880   75.8518   -7.8523 O.3     1  UNL1       -0.3258
     30 O          23.5851   79.5168   -8.6997 O.3     1  UNL1       -0.3794
     31 O          22.9212   77.2372  -10.3155 O.3     1  UNL1       -0.3794
     32 O          24.1422   78.7834   -5.9554 O.3     1  UNL1       -0.3775
     33 C          23.6059   78.1690   -8.2217 C.3     1  UNL1        0.1715
     34 C          23.9989   77.2543   -9.3834 C.3     1  UNL1        0.1694
     35 C          24.6191   78.0585   -7.0839 C.3     1  UNL1        0.1967
     36 C          24.3020   75.8327   -8.8911 C.3     1  UNL1        0.1761
     37 C          24.8850   76.6008   -6.7040 C.3     1  UNL1        0.2704
     38 H          22.9434   79.5939   -9.4220 H       1  UNL1        0.2105
     39 H          22.7396   78.1409  -10.6182 H       1  UNL1        0.2105
     40 H          23.9779   79.7046   -6.2088 H       1  UNL1        0.2106
     41 O          24.6511   73.5914   -9.6418 O.3     1  UNL1       -0.3794
     42 C          24.8474   74.9449  -10.0075 C.3     1  UNL1        0.1693
     43 H          24.9932   73.0147  -10.3433 H       1  UNL1        0.2105
@<TRIPOS>UNITY_ATOM_ATTR
2 1
charge -1
26 1
charge -1
@<TRIPOS>BOND
     1    25    28    1
     2    25    24    1
     3    25    26    1
     4    25    27    2
     5     1     4    1
     6     1    24    1
     7     1     2    1
     8     1     3    2
     9     6    11    1
    10     6    12    1
    11    29    36    1
    12    29    37    1
    13     7     9    1
    14     7    13    1
    15     8    10    1
    16     8    14    1
    17    28    37    1
    18     4     5    1
    19    30    33    1
    20    30    38    1
    21    31    34    1
    22    31    39    1
    23    32    35    1
    24    32    40    1
    25    41    42    1
    26    41    43    1
    27    15    19    2
    28    16    22    2
    29    17    12    1
    30    17    19   ar
    31    17    20   ar
    32    18    19   ar
    33    18    22   ar
    34    18    23    1
    35     9    10    1
    36     9    11    1
    37    10    12    1
    38    11     5    1
    39    33    34    1
    40    33    35    1
    41    34    36    1
    42    35    37    1
    43    36    42    1
    44    20    21   ar
    45    21    22   ar
@<TRIPOS>MOLECULE
*****
 43 45 0 0 0
SMALL
GASTEIGER

@<TRIPOS>ATOM
      1 P          22.9103   72.2348   -3.5779 P.3     1  UNL1        0.2189
      2 O          23.2404   72.8458   -5.0391 O.co2   1  UNL1       -0.4371
      3 O          23.4739   70.8683   -3.3202 O.2     1  UNL1       -0.5170
      4 O          21.3022   72.3659   -3.4564 O.3     1  UNL1       -0.3112
      5 C          20.5249   71.1812   -3.4622 C.3     1  UNL1        0.1811
      6 O          18.6244   72.0986   -4.6112 O.3     1  UNL1       -0.3308
      7 O          16.9534   70.8372   -2.4646 O.3     1  UNL1       -0.3794
      8 O          16.6776   69.0873   -4.5380 O.3     1  UNL1       -0.3779
      9 C          18.1491   70.3564   -3.0767 C.3     1  UNL1        0.1713
     10 C          17.8596   69.8594   -4.4776 C.3     1  UNL1        0.1895
     11 C          19.0532   71.5533   -3.3443 C.3     1  UNL1        0.1764
     12 C          17.7493   71.1591   -5.2565 C.3     1  UNL1        0.2383
     13 H          16.3602   70.0906   -2.2838 H       1  UNL1        0.2105
     14 H          16.7979   68.2714   -4.0276 H       1  UNL1        0.2106
     15 O          16.0317   70.3452   -7.3459 O.2     1  UNL1       -0.2464
     16 O          19.4036   70.6290  -10.4749 O.2     1  UNL1       -0.2670
     17 N          18.1519   71.0123   -6.6268 N.ar    1  UNL1       -0.2551
     18 N          17.7120   70.4874   -8.9022 N.ar    1  UNL1       -0.2743
     19 C          17.2117   70.5970   -7.5985 C.ar    1  UNL1        0.3323
     20 C          19.4659   71.2793   -6.9955 C.ar    1  UNL1        0.0869
     21 C          19.9274   71.1688   -8.2429 C.ar    1  UNL1        0.0795
     22 C          19.0096   70.7403   -9.3181 C.ar    1  UNL1        0.2626
     23 H          17.0752   70.1992   -9.5959 H       1  UNL1        0.1734
     24 O          23.4454   73.3835   -2.5743 O.3     1  UNL1       -0.2703
     25 P          22.7102   74.6882   -1.9658 P.3     1  UNL1        0.2208
     26 O          21.2381   74.6302   -2.6344 O.co2   1  UNL1       -0.4371
     27 O          23.4467   75.9751   -2.2006 O.2     1  UNL1       -0.5170
     28 O          22.4660   74.3314   -0.4108 O.3     1  UNL1       -0.2858
     29 O          21.1449   72.3660   -0.3187 O.3     1  UNL1       -0.3258
     30 O          21.3613   73.2054    3.7186 O.3     1  UNL1       -0.3794
     31 O          22.8463   70.9921    2.6490 O.3     1  UNL1       -0.3794
     32 O          21.0913   75.3629    1.8076 O.3     1  UNL1       -0.3775
     33 C          21.8414   73.1450    2.3728 C.3     1  UNL1        0.1715
     34 C          21.8311   71.6820    1.9252 C.3     1  UNL1        0.1694
     35 C          20.9317   73.9868    1.4800 C.3     1  UNL1        0.1967
     36 C          22.0769   71.5630    0.4150 C.3     1  UNL1        0.1761
     37 C          21.2267   73.7573   -0.0034 C.3     1  UNL1        0.2704
     38 H          21.9348   72.6733    4.2908 H       1  UNL1        0.2105
     39 H          22.6796   71.0754    3.6011 H       1  UNL1        0.2105
     40 H          20.9014   75.4951    2.7491 H       1  UNL1        0.2106
     41 O          22.9513   69.3403    0.4777 O.3     1  UNL1       -0.3794
     42 C          21.9147   70.1272   -0.0794 C.3     1  UNL1        0.1693
     43 H          22.8606   68.4238    0.1719 H       1  UNL1        0.2105
@<TRIPOS>UNITY_ATOM_ATTR
2 1
charge -1
26 1
charge -1
@<TRIPOS>BOND
     1    25    28    1
     2    25    24    1
     3    25    26    1
     4    25    27    2
     5     1     4    1
     6     1    24    1
     7     1     2    1
     8     1     3    2
     9     6    11    1
    10     6    12    1
    11    29    36    1
    12    29    37    1
    13     7     9    1
    14     7    13    1
    15     8    10    1
    16     8    14    1
    17    28    37    1
    18     4     5    1
    19    30    33    1
    20    30    38    1
    21    31    34    1
    22    31    39    1
    23    32    35    1
    24    32    40    1
    25    41    42    1
    26    41    43    1
    27    15    19    2
    28    16    22    2
    29    17    12    1
    30    17    19   ar
    31    17    20   ar
    32    18    19   ar
    33    18    22   ar
    34    18    23    1
    35     9    10    1
    36     9    11    1
    37    10    12    1
    38    11     5    1
    39    33    34    1
    40    33    35    1
    41    34    36    1
    42    35    37    1
    43    36    42    1
    44    20    21   ar
    45    21    22   ar
@<TRIPOS>MOLECULE
*****
 43 45 0 0 0
SMALL
GASTEIGER

@<TRIPOS>ATOM
      1 P          22.4992   74.1056   -4.3127 P.3     1  UNL1        0.2189
      2 O          23.6143   73.0010   -4.7048 O.co2   1  UNL1       -0.4371
      3 O          22.9788   75.1926   -3.3963 O.2     1  UNL1       -0.5170
      4 O          21.2553   73.2256   -3.7684 O.3     1  UNL1       -0.3112
      5 C          21.0445   73.1458   -2.3695 C.3     1  UNL1        0.1811
      6 O          22.4778   73.1146   -0.4412 O.3     1  UNL1       -0.3308
      7 O          23.3346   70.3901   -1.3545 O.3     1  UNL1       -0.3794
      8 O          21.5564   69.8190    0.6327 O.3     1  UNL1       -0.3779
      9 C          22.0495   71.0048   -1.4318 C.3     1  UNL1        0.1713
     10 C          21.3994   71.0381   -0.0644 C.3     1  UNL1        0.1895
     11 C          22.2547   72.4863   -1.7225 C.3     1  UNL1        0.1764
     12 C          22.1288   72.1915    0.6033 C.3     1  UNL1        0.2383
     13 H          23.2292   69.4431   -1.1698 H       1  UNL1        0.2105
     14 H          21.0744   69.1167    0.1688 H       1  UNL1        0.2106
     15 O          21.8798   71.4123    3.3068 O.2     1  UNL1       -0.2464
     16 O          18.9675   74.8646    4.2241 O.2     1  UNL1       -0.2670
     17 N          21.3125   72.8690    1.5709 N.ar    1  UNL1       -0.2551
     18 N          20.4300   73.1320    3.7614 N.ar    1  UNL1       -0.2743
     19 C          21.2564   72.3960    2.9026 C.ar    1  UNL1        0.3323
     20 C          20.5791   73.9894    1.1959 C.ar    1  UNL1        0.0869
     21 C          19.7948   74.6793    2.0266 C.ar    1  UNL1        0.0795
     22 C          19.6804   74.2513    3.4358 C.ar    1  UNL1        0.2626
     23 H          20.3750   72.8208    4.6941 H       1  UNL1        0.1734
     24 O          21.9767   74.6216   -5.7528 O.3     1  UNL1       -0.2703
     25 P          21.5383   73.8058   -7.0776 P.3     1  UNL1        0.2208
     26 O          22.6237   72.6084   -7.1521 O.co2   1  UNL1       -0.4371
     27 O          21.4571   74.6461   -8.3190 O.2     1  UNL1       -0.5170
     28 O          20.1562   73.0784   -6.6708 O.3     1  UNL1       -0.2858
     29 O          19.5540   70.8091   -6.3473 O.3     1  UNL1       -0.3258
     30 O          16.1912   72.1031   -8.3643 O.3     1  UNL1       -0.3794
     31 O          16.0287   71.5379   -5.5532 O.3     1  UNL1       -0.3794
     32 O          18.8028   73.0901   -9.1291 O.3     1  UNL1       -0.3775
     33 C          17.2959   72.2202   -7.4636 C.3     1  UNL1        0.1715
     34 C          17.1358   71.1638   -6.3685 C.3     1  UNL1        0.1694
     35 C          18.5953   72.0010   -8.2362 C.3     1  UNL1        0.1967
     36 C          18.4093   71.0481   -5.5200 C.3     1  UNL1        0.1761
     37 C          19.7928   71.8504   -7.2963 C.3     1  UNL1        0.2704
     38 H          15.3630   72.2417   -7.8801 H       1  UNL1        0.2105
     39 H          15.2312   71.6079   -6.1012 H       1  UNL1        0.2105
     40 H          18.0381   73.1747   -9.7189 H       1  UNL1        0.2106
     41 O          19.2555   70.1355   -3.4804 O.3     1  UNL1       -0.3794
     42 C          18.3299   69.8933   -4.5239 C.3     1  UNL1        0.1693
     43 H          19.2158   69.4086   -2.8387 H       1  UNL1        0.2105
@<TRIPOS>UNITY_ATOM_ATTR
2 1
charge -1
26 1
charge -1
@<TRIPOS>BOND
     1    25    28    1
     2    25    24    1
     3    25    26    1
     4    25    27    2
     5     1     4    1
     6     1    24    1
     7     1     2    1
     8     1     3    2
     9     6    11    1
    10     6    12    1
    11    29    36    1
    12    29    37    1
    13     7     9    1
    14     7    13    1
    15     8    10    1
    16     8    14    1
    17    28    37    1
    18     4     5    1
    19    30    33    1
    20    30    38    1
    21    31    34    1
    22    31    39    1
    23    32    35    1
    24    32    40    1
    25    41    42    1
    26    41    43    1
    27    15    19    2
    28    16    22    2
    29    17    12    1
    30    17    19   ar
    31    17    20   ar
    32    18    19   ar
    33    18    22   ar
    34    18    23    1
    35     9    10    1
    36     9    11    1
    37    10    12    1
    38    11     5    1
    39    33    34    1
    40    33    35    1
    41    34    36    1
    42    35    37    1
    43    36    42    1
    44    20    21   ar
    45    21    22   ar
@<TRIPOS>MOLECULE
*****
 43 45 0 0 0
SMALL
GASTEIGER

@<TRIPOS>ATOM
      1 P          21.6791   71.3537   -3.1564 P.3     1  UNL1        0.2189
      2 O          21.0334   72.8084   -2.8665 O.co2   1  UNL1       -0.4371
      3 O          23.1256   71.3703   -3.5550 O.2     1  UNL1       -0.5170
      4 O          20.6640   70.6838   -4.2235 O.3     1  UNL1       -0.3112
      5 C          19.7848   71.5301   -4.9436 C.3     1  UNL1        0.1811
      6 O          17.5201   72.3291   -5.0240 O.3     1  UNL1       -0.3308
      7 O          16.7317   69.6414   -3.9537 O.3     1  UNL1       -0.3794
      8 O          16.1701   69.4105   -6.6122 O.3     1  UNL1       -0.3779
      9 C          17.7705   69.9775   -4.8720 C.3     1  UNL1        0.1713
     10 C          17.1853   70.3150   -6.2274 C.3     1  UNL1        0.1895
     11 C          18.3643   71.3127   -4.4405 C.3     1  UNL1        0.1764
     12 C          16.6596   71.7225   -6.0020 C.3     1  UNL1        0.2383
     13 H          16.3374   68.7920   -4.2085 H       1  UNL1        0.2105
     14 H          16.5544   68.5297   -6.7435 H       1  UNL1        0.2106
     15 O          18.6589   71.5497   -7.9897 O.2     1  UNL1       -0.2464
     16 O          16.6500   74.8108  -10.5531 O.2     1  UNL1       -0.2670
     17 N          16.6836   72.5144   -7.1994 N.ar    1  UNL1       -0.2551
     18 N          17.6569   73.1735   -9.2645 N.ar    1  UNL1       -0.2743
     19 C          17.7332   72.3509   -8.1333 C.ar    1  UNL1        0.3323
     20 C          15.6739   73.4403   -7.4382 C.ar    1  UNL1        0.0869
     21 C          15.6164   74.2180   -8.5213 C.ar    1  UNL1        0.0795
     22 C          16.6746   74.1096   -9.5462 C.ar    1  UNL1        0.2626
     23 H          18.3776   73.0773   -9.9287 H       1  UNL1        0.1734
     24 O          21.3656   70.5391   -1.7959 O.3     1  UNL1       -0.2703
     25 P          22.1198   70.5303   -0.3662 P.3     1  UNL1        0.2208
     26 O          23.6542   70.1996   -0.7582 O.co2   1  UNL1       -0.4371
     27 O          21.5212   69.5900    0.6395 O.2     1  UNL1       -0.5170
     28 O          22.1409   72.0771    0.0942 O.3     1  UNL1       -0.2858
     29 O          22.0718   72.6879    2.3830 O.3     1  UNL1       -0.3258
     30 O          20.5890   76.1675    0.7265 O.3     1  UNL1       -0.3794
     31 O          23.2462   76.1357    1.8156 O.3     1  UNL1       -0.3794
     32 O          19.8354   73.6034   -0.3857 O.3     1  UNL1       -0.3775
     33 C          21.4119   74.9993    0.7837 C.3     1  UNL1        0.1715
     34 C          22.2958   75.0957    2.0288 C.3     1  UNL1        0.1694
     35 C          20.5185   73.7622    0.8531 C.3     1  UNL1        0.1967
     36 C          23.0112   73.7664    2.3047 C.3     1  UNL1        0.1761
     37 C          21.3224   72.5026    1.1806 C.3     1  UNL1        0.2704
     38 H          21.1501   76.9566    0.6818 H       1  UNL1        0.2105
     39 H          22.7815   76.9695    1.6421 H       1  UNL1        0.2105
     40 H          19.3301   74.4073   -0.5815 H       1  UNL1        0.2106
     41 O          23.0568   74.5974    4.5444 O.3     1  UNL1       -0.3794
     42 C          23.7735   73.7910    3.6277 C.3     1  UNL1        0.1693
     43 H          23.5300   74.6220    5.3912 H       1  UNL1        0.2105
@<TRIPOS>UNITY_ATOM_ATTR
2 1
charge -1
26 1
charge -1
@<TRIPOS>BOND
     1    25    28    1
     2    25    24    1
     3    25    26    1
     4    25    27    2
     5     1     4    1
     6     1    24    1
     7     1     2    1
     8     1     3    2
     9     6    11    1
    10     6    12    1
    11    29    36    1
    12    29    37    1
    13     7     9    1
    14     7    13    1
    15     8    10    1
    16     8    14    1
    17    28    37    1
    18     4     5    1
    19    30    33    1
    20    30    38    1
    21    31    34    1
    22    31    39    1
    23    32    35    1
    24    32    40    1
    25    41    42    1
    26    41    43    1
    27    15    19    2
    28    16    22    2
    29    17    12    1
    30    17    19   ar
    31    17    20   ar
    32    18    19   ar
    33    18    22   ar
    34    18    23    1
    35     9    10    1
    36     9    11    1
    37    10    12    1
    38    11     5    1
    39    33    34    1
    40    33    35    1
    41    34    36    1
    42    35    37    1
    43    36    42    1
    44    20    21   ar
    45    21    22   ar
@<TRIPOS>MOLECULE
*****
 43 45 0 0 0
SMALL
GASTEIGER

@<TRIPOS>ATOM
      1 P          19.7137   69.7275   -2.7280 P.3     1  UNL1        0.2189
      2 O          18.4489   68.7335   -2.5558 O.co2   1  UNL1       -0.4371
      3 O          20.9671   69.0764   -3.2343 O.2     1  UNL1       -0.5170
      4 O          19.8329   70.4574   -1.2889 O.3     1  UNL1       -0.3112
      5 C          21.1101   70.8908   -0.8544 C.3     1  UNL1        0.1811
      6 O          20.5031   73.1864   -0.4861 O.3     1  UNL1       -0.3308
      7 O          22.9831   73.8924   -2.0165 O.3     1  UNL1       -0.3794
      8 O          23.7607   74.2494    0.5728 O.3     1  UNL1       -0.3779
      9 C          22.7578   72.8121   -1.1123 C.3     1  UNL1        0.1713
     10 C          22.7297   73.3181    0.3148 C.3     1  UNL1        0.1895
     11 C          21.3261   72.3285   -1.3066 C.3     1  UNL1        0.1764
     12 C          21.3458   73.9388    0.4019 C.3     1  UNL1        0.2383
     13 H          23.8914   74.2179   -1.9112 H       1  UNL1        0.2105
     14 H          24.6210   73.8066    0.5055 H       1  UNL1        0.2106
     15 O          21.5855   71.7111    2.1218 O.2     1  UNL1       -0.2464
     16 O          19.2091   73.8077    5.4682 O.2     1  UNL1       -0.2670
     17 N          20.7997   73.8755    1.7283 N.ar    1  UNL1       -0.2551
     18 N          20.4022   72.7569    3.7867 N.ar    1  UNL1       -0.2743
     19 C          20.9754   72.7096    2.5095 C.ar    1  UNL1        0.3323
     20 C          20.0992   74.9616    2.2418 C.ar    1  UNL1        0.0869
     21 C          19.5576   74.9903    3.4613 C.ar    1  UNL1        0.0795
     22 C          19.6958   73.8122    4.3417 C.ar    1  UNL1        0.2626
     23 H          20.5115   71.9557    4.3488 H       1  UNL1        0.1734
     24 O          19.1305   70.8959   -3.6808 O.3     1  UNL1       -0.2703
     25 P          17.6581   71.1162   -4.3104 P.3     1  UNL1        0.2208
     26 O          17.0673   72.3519   -3.4492 O.co2   1  UNL1       -0.4371
     27 O          16.7954   69.8876   -4.3027 O.2     1  UNL1       -0.5170
     28 O          17.9291   71.7341   -5.7767 O.3     1  UNL1       -0.2858
     29 O          19.3474   70.7107   -7.3760 O.3     1  UNL1       -0.3258
     30 O          19.6444   74.6297   -8.6425 O.3     1  UNL1       -0.3794
     31 O          18.1400   72.7454  -10.2028 O.3     1  UNL1       -0.3794
     32 O          19.5412   74.0308   -5.8123 O.3     1  UNL1       -0.3775
     33 C          18.9880   73.4845   -8.0920 C.3     1  UNL1        0.1715
     34 C          19.0104   72.3693   -9.1392 C.3     1  UNL1        0.1694
     35 C          19.7233   73.0482   -6.8261 C.3     1  UNL1        0.1967
     36 C          18.5663   71.0312   -8.5331 C.3     1  UNL1        0.1761
     37 C          19.2397   71.6828   -6.3342 C.3     1  UNL1        0.2704
     38 H          19.1821   74.9121   -9.4463 H       1  UNL1        0.2105
     39 H          18.4311   73.5921  -10.5764 H       1  UNL1        0.2105
     40 H          19.8514   74.8904   -6.1358 H       1  UNL1        0.2106
     41 O          19.3319   70.3724  -10.6984 O.3     1  UNL1       -0.3794
     42 C          18.7312   69.8749   -9.5169 C.3     1  UNL1        0.1693
     43 H          19.4433   69.6473  -11.3337 H       1  UNL1        0.2105
@<TRIPOS>UNITY_ATOM_ATTR
2 1
charge -1
26 1
charge -1
@<TRIPOS>BOND
     1    25    28    1
     2    25    24    1
     3    25    26    1
     4    25    27    2
     5     1     4    1
     6     1    24    1
     7     1     2    1
     8     1     3    2
     9     6    11    1
    10     6    12    1
    11    29    36    1
    12    29    37    1
    13     7     9    1
    14     7    13    1
    15     8    10    1
    16     8    14    1
    17    28    37    1
    18     4     5    1
    19    30    33    1
    20    30    38    1
    21    31    34    1
    22    31    39    1
    23    32    35    1
    24    32    40    1
    25    41    42    1
    26    41    43    1
    27    15    19    2
    28    16    22    2
    29    17    12    1
    30    17    19   ar
    31    17    20   ar
    32    18    19   ar
    33    18    22   ar
    34    18    23    1
    35     9    10    1
    36     9    11    1
    37    10    12    1
    38    11     5    1
    39    33    34    1
    40    33    35    1
    41    34    36    1
    42    35    37    1
    43    36    42    1
    44    20    21   ar
    45    21    22   ar
@<TRIPOS>MOLECULE
*****
 43 45 0 0 0
SMALL
GASTEIGER

@<TRIPOS>ATOM
      1 P          22.4764   72.9837   -4.7524 P.3     1  UNL1        0.2189
      2 O          21.5482   74.2955   -4.5657 O.co2   1  UNL1       -0.4371
      3 O          23.8521   73.0915   -4.1630 O.2     1  UNL1       -0.5170
      4 O          22.4142   72.6869   -6.3417 O.3     1  UNL1       -0.3112
      5 C          21.4027   73.3172   -7.1082 C.3     1  UNL1        0.1811
      6 O          20.0939   71.3025   -7.1485 O.3     1  UNL1       -0.3308
      7 O          19.4649   71.9905   -9.9984 O.3     1  UNL1       -0.3794
      8 O          17.2106   72.7829   -8.6842 O.3     1  UNL1       -0.3779
      9 C          19.6331   72.8566   -8.8772 C.3     1  UNL1        0.1713
     10 C          18.4269   72.7761   -7.9650 C.3     1  UNL1        0.1895
     11 C          20.7355   72.2781   -7.9988 C.3     1  UNL1        0.1764
     12 C          18.6688   71.4643   -7.2377 C.3     1  UNL1        0.2383
     13 H          18.7660   72.3396  -10.5743 H       1  UNL1        0.2105
     14 H          17.1026   73.6380   -9.1290 H       1  UNL1        0.2106
     15 O          16.7286   69.6275   -6.3214 O.2     1  UNL1       -0.2464
     16 O          16.6171   71.5531   -2.1356 O.2     1  UNL1       -0.2670
     17 N          18.1154   71.4625   -5.9129 N.ar    1  UNL1       -0.2551
     18 N          16.6748   70.5877   -4.2379 N.ar    1  UNL1       -0.2743
     19 C          17.1457   70.4974   -5.5539 C.ar    1  UNL1        0.3323
     20 C          18.5349   72.4099   -4.9854 C.ar    1  UNL1        0.0869
     21 C          18.0750   72.4833   -3.7346 C.ar    1  UNL1        0.0795
     22 C          17.0597   71.5118   -3.2794 C.ar    1  UNL1        0.2626
     23 H          15.9983   69.9259   -3.9655 H       1  UNL1        0.1734
     24 O          21.5671   71.8029   -4.1265 O.3     1  UNL1       -0.2703
     25 P          21.8964   70.6951   -2.9963 P.3     1  UNL1        0.2208
     26 O          23.5004   70.5161   -3.1085 O.co2   1  UNL1       -0.4371
     27 O          21.1193   69.4188   -3.1407 O.2     1  UNL1       -0.5170
     28 O          21.6689   71.4618   -1.5943 O.3     1  UNL1       -0.2858
     29 O          23.3349   72.7833   -0.5481 O.3     1  UNL1       -0.3258
     30 O          21.1545   71.7068    2.7892 O.3     1  UNL1       -0.3794
     31 O          21.0073   74.4019    1.8080 O.3     1  UNL1       -0.3794
     32 O          21.5741   69.7921    0.6592 O.3     1  UNL1       -0.3775
     33 C          21.3462   72.0665    1.4184 C.3     1  UNL1        0.1715
     34 C          21.9812   73.4577    1.3719 C.3     1  UNL1        0.1694
     35 C          22.2586   71.0366    0.7550 C.3     1  UNL1        0.1967
     36 C          22.4609   73.8006   -0.0450 C.3     1  UNL1        0.1761
     37 C          22.7175   71.4972   -0.6297 C.3     1  UNL1        0.2704
     38 H          20.5756   72.3565    3.2161 H       1  UNL1        0.2105
     39 H          20.7123   74.1738    2.7036 H       1  UNL1        0.2105
     40 H          21.2891   69.5111    1.5422 H       1  UNL1        0.2106
     41 O          24.3666   74.9455   -0.9205 O.3     1  UNL1       -0.3794
     42 C          23.2375   75.1149   -0.0834 C.3     1  UNL1        0.1693
     43 H          24.8702   75.7742   -0.9548 H       1  UNL1        0.2105
@<TRIPOS>UNITY_ATOM_ATTR
2 1
charge -1
26 1
charge -1
@<TRIPOS>BOND
     1    25    28    1
     2    25    24    1
     3    25    26    1
     4    25    27    2
     5     1     4    1
     6     1    24    1
     7     1     2    1
     8     1     3    2
     9     6    11    1
    10     6    12    1
    11    29    36    1
    12    29    37    1
    13     7     9    1
    14     7    13    1
    15     8    10    1
    16     8    14    1
    17    28    37    1
    18     4     5    1
    19    30    33    1
    20    30    38    1
    21    31    34    1
    22    31    39    1
    23    32    35    1
    24    32    40    1
    25    41    42    1
    26    41    43    1
    27    15    19    2
    28    16    22    2
    29    17    12    1
    30    17    19   ar
    31    17    20   ar
    32    18    19   ar
    33    18    22   ar
    34    18    23    1
    35     9    10    1
    36     9    11    1
    37    10    12    1
    38    11     5    1
    39    33    34    1
    40    33    35    1
    41    34    36    1
    42    35    37    1
    43    36    42    1
    44    20    21   ar
    45    21    22   ar
@<TRIPOS>MOLECULE
*****
 43 45 0 0 0
SMALL
GASTEIGER

@<TRIPOS>ATOM
      1 P          18.9764   70.3687   -3.2300 P.3     1  UNL1        0.2189
      2 O          18.6451   68.9658   -2.4953 O.co2   1  UNL1       -0.4371
      3 O          18.5726   71.5951   -2.4656 O.2     1  UNL1       -0.5170
      4 O          18.3135   70.2050   -4.6968 O.3     1  UNL1       -0.3112
      5 C          18.9780   70.7822   -5.8073 C.3     1  UNL1        0.1811
      6 O          18.6113   72.9830   -6.6993 O.3     1  UNL1       -0.3308
      7 O          16.4482   71.7438   -8.3654 O.3     1  UNL1       -0.3794
      8 O          18.5110   71.9612  -10.1357 O.3     1  UNL1       -0.3779
      9 C          17.7068   71.1998   -7.9712 C.3     1  UNL1        0.1713
     10 C          18.8275   71.8396   -8.7639 C.3     1  UNL1        0.1895
     11 C          18.0033   71.6806   -6.5562 C.3     1  UNL1        0.1764
     12 C          18.9714   73.1862   -8.0754 C.3     1  UNL1        0.2383
     13 H          16.2370   71.4502   -9.2661 H       1  UNL1        0.2105
     14 H          18.4301   71.0781  -10.5285 H       1  UNL1        0.2106
     15 O          21.2898   71.5786   -7.9379 O.2     1  UNL1       -0.2464
     16 O          24.0699   75.2348   -8.3179 O.2     1  UNL1       -0.2670
     17 N          20.3139   73.6917   -8.1364 N.ar    1  UNL1       -0.2551
     18 N          22.6721   73.4004   -8.1274 N.ar    1  UNL1       -0.2743
     19 C          21.4087   72.7998   -8.0574 C.ar    1  UNL1        0.3323
     20 C          20.5343   75.0580   -8.2733 C.ar    1  UNL1        0.0869
     21 C          21.7455   75.6150   -8.3372 C.ar    1  UNL1        0.0795
     22 C          22.9427   74.7529   -8.2621 C.ar    1  UNL1        0.2626
     23 H          23.4498   72.7986   -8.0741 H       1  UNL1        0.1734
     24 O          20.5602   70.2555   -3.5323 O.3     1  UNL1       -0.2703
     25 P          21.8065   71.1432   -3.0111 P.3     1  UNL1        0.2208
     26 O          21.5164   72.6012   -3.6497 O.co2   1  UNL1       -0.4371
     27 O          23.1530   70.5742   -3.3532 O.2     1  UNL1       -0.5170
     28 O          21.5417   71.3306   -1.4301 O.3     1  UNL1       -0.2858
     29 O          23.1849   72.7917   -0.5460 O.3     1  UNL1       -0.3258
     30 O          21.2970   71.7194    2.9664 O.3     1  UNL1       -0.3794
     31 O          20.9166   74.3591    1.9009 O.3     1  UNL1       -0.3794
     32 O          21.6983   69.7499    0.8833 O.3     1  UNL1       -0.3775
     33 C          21.3766   72.0349    1.5737 C.3     1  UNL1        0.1715
     34 C          21.9181   73.4591    1.4348 C.3     1  UNL1        0.1694
     35 C          22.3076   71.0365    0.8882 C.3     1  UNL1        0.1967
     36 C          22.2827   73.7734   -0.0224 C.3     1  UNL1        0.1761
     37 C          22.6460   71.4683   -0.5397 C.3     1  UNL1        0.2704
     38 H          20.7070   72.3494    3.4075 H       1  UNL1        0.2105
     39 H          20.6951   74.1496    2.8219 H       1  UNL1        0.2105
     40 H          21.4892   69.4878    1.7929 H       1  UNL1        0.2106
     41 O          23.0931   75.4339   -1.5372 O.3     1  UNL1       -0.3794
     42 C          22.9705   75.1299   -0.1600 C.3     1  UNL1        0.1693
     43 H          23.5289   76.2948   -1.6401 H       1  UNL1        0.2105
@<TRIPOS>UNITY_ATOM_ATTR
2 1
charge -1
26 1
charge -1
@<TRIPOS>BOND
     1    25    28    1
     2    25    24    1
     3    25    26    1
     4    25    27    2
     5     1     4    1
     6     1    24    1
     7     1     2    1
     8     1     3    2
     9     6    11    1
    10     6    12    1
    11    29    36    1
    12    29    37    1
    13     7     9    1
    14     7    13    1
    15     8    10    1
    16     8    14    1
    17    28    37    1
    18     4     5    1
    19    30    33    1
    20    30    38    1
    21    31    34    1
    22    31    39    1
    23    32    35    1
    24    32    40    1
    25    41    42    1
    26    41    43    1
    27    15    19    2
    28    16    22    2
    29    17    12    1
    30    17    19   ar
    31    17    20   ar
    32    18    19   ar
    33    18    22   ar
    34    18    23    1
    35     9    10    1
    36     9    11    1
    37    10    12    1
    38    11     5    1
    39    33    34    1
    40    33    35    1
    41    34    36    1
    42    35    37    1
    43    36    42    1
    44    20    21   ar
    45    21    22   ar
@<TRIPOS>MOLECULE
*****
 43 45 0 0 0
SMALL
GASTEIGER

@<TRIPOS>ATOM
      1 P          21.6874   73.4900   -5.8408 P.3     1  UNL1        0.2189
      2 O          20.9695   74.7747   -5.1688 O.co2   1  UNL1       -0.4371
      3 O          22.9244   73.7973   -6.6325 O.2     1  UNL1       -0.5170
      4 O          20.4948   72.7607   -6.6556 O.3     1  UNL1       -0.3112
      5 C          19.7935   71.7031   -6.0251 C.3     1  UNL1        0.1811
      6 O          17.7428   70.9246   -7.0061 O.3     1  UNL1       -0.3308
      7 O          19.4045   70.0853   -9.3567 O.3     1  UNL1       -0.3794
      8 O          18.2945   72.4226  -10.2177 O.3     1  UNL1       -0.3779
      9 C          19.5476   71.2260   -8.5120 C.3     1  UNL1        0.1713
     10 C          18.4782   72.2511   -8.8272 C.3     1  UNL1        0.1895
     11 C          19.1799   70.8087   -7.0936 C.3     1  UNL1        0.1764
     12 C          17.2588   71.6540   -8.1456 C.3     1  UNL1        0.2383
     13 H          19.6342   70.3271  -10.2681 H       1  UNL1        0.2105
     14 H          19.0972   72.8050  -10.6053 H       1  UNL1        0.2106
     15 O          16.1754   71.7788   -5.5401 O.2     1  UNL1       -0.2464
     16 O          13.7219   75.5491   -6.5431 O.2     1  UNL1       -0.2670
     17 N          16.3348   72.6579   -7.6985 N.ar    1  UNL1       -0.2551
     18 N          14.9547   73.6561   -6.0416 N.ar    1  UNL1       -0.2743
     19 C          15.8498   72.6300   -6.3702 C.ar    1  UNL1        0.3323
     20 C          15.9190   73.6559   -8.5732 C.ar    1  UNL1        0.0869
     21 C          15.0639   74.6264   -8.2447 C.ar    1  UNL1        0.0795
     22 C          14.5102   74.6696   -6.8759 C.ar    1  UNL1        0.2626
     23 H          14.6034   73.6567   -5.1216 H       1  UNL1        0.1734
     24 O          21.9223   72.5047   -4.5811 O.3     1  UNL1       -0.2703
     25 P          23.1654   72.3691   -3.5568 P.3     1  UNL1        0.2208
     26 O          24.2587   73.3967   -4.1621 O.co2   1  UNL1       -0.4371
     27 O          23.6666   70.9651   -3.3798 O.2     1  UNL1       -0.5170
     28 O          22.6533   73.0729   -2.1976 O.3     1  UNL1       -0.2858
     29 O          20.6835   71.7601   -2.3124 O.3     1  UNL1       -0.3258
     30 O          21.1759   71.8539    1.7863 O.3     1  UNL1       -0.3794
     31 O          21.7147   69.4268    0.3486 O.3     1  UNL1       -0.3794
     32 O          21.7595   74.2091    0.2077 O.3     1  UNL1       -0.3775
     33 C          21.6060   71.8150    0.4229 C.3     1  UNL1        0.1715
     34 C          21.0431   70.5467   -0.2215 C.3     1  UNL1        0.1694
     35 C          21.0907   73.0589   -0.2987 C.3     1  UNL1        0.1967
     36 C          21.2352   70.5667   -1.7439 C.3     1  UNL1        0.1761
     37 C          21.2862   72.9554   -1.8123 C.3     1  UNL1        0.2704
     38 H          21.5002   71.0671    2.2503 H       1  UNL1        0.2105
     39 H          21.5859   69.4262    1.3102 H       1  UNL1        0.2105
     40 H          21.6279   74.2635    1.1666 H       1  UNL1        0.2106
     41 O          19.1655   69.4262   -2.0966 O.3     1  UNL1       -0.3794
     42 C          20.5425   69.3875   -2.4234 C.3     1  UNL1        0.1693
     43 H          18.7117   68.6815   -2.5225 H       1  UNL1        0.2105
@<TRIPOS>UNITY_ATOM_ATTR
2 1
charge -1
26 1
charge -1
@<TRIPOS>BOND
     1    25    28    1
     2    25    24    1
     3    25    26    1
     4    25    27    2
     5     1     4    1
     6     1    24    1
     7     1     2    1
     8     1     3    2
     9     6    11    1
    10     6    12    1
    11    29    36    1
    12    29    37    1
    13     7     9    1
    14     7    13    1
    15     8    10    1
    16     8    14    1
    17    28    37    1
    18     4     5    1
    19    30    33    1
    20    30    38    1
    21    31    34    1
    22    31    39    1
    23    32    35    1
    24    32    40    1
    25    41    42    1
    26    41    43    1
    27    15    19    2
    28    16    22    2
    29    17    12    1
    30    17    19   ar
    31    17    20   ar
    32    18    19   ar
    33    18    22   ar
    34    18    23    1
    35     9    10    1
    36     9    11    1
    37    10    12    1
    38    11     5    1
    39    33    34    1
    40    33    35    1
    41    34    36    1
    42    35    37    1
    43    36    42    1
    44    20    21   ar
    45    21    22   ar
@<TRIPOS>MOLECULE
*****
 43 45 0 0 0
SMALL
GASTEIGER

@<TRIPOS>ATOM
      1 P          21.9318   73.0847   -4.5387 P.3     1  UNL1        0.2189
      2 O          21.5332   74.1080   -3.3506 O.co2   1  UNL1       -0.4371
      3 O          23.3923   73.0485   -4.8806 O.2     1  UNL1       -0.5170
      4 O          20.9366   73.4882   -5.7489 O.3     1  UNL1       -0.3112
      5 C          21.2204   73.0006   -7.0488 C.3     1  UNL1        0.1811
      6 O          19.0774   71.9205   -6.9271 O.3     1  UNL1       -0.3308
      7 O          20.2413   69.8231   -8.7262 O.3     1  UNL1       -0.3794
      8 O          18.7723   71.3387  -10.4529 O.3     1  UNL1       -0.3779
      9 C          20.4703   71.2312   -8.7160 C.3     1  UNL1        0.1713
     10 C          19.2740   71.9626   -9.2885 C.3     1  UNL1        0.1895
     11 C          20.4637   71.6973   -7.2655 C.3     1  UNL1        0.1764
     12 C          18.2919   71.9151   -8.1303 C.3     1  UNL1        0.2383
     13 H          20.2415   69.5023   -9.6421 H       1  UNL1        0.2105
     14 H          19.4332   71.3952  -11.1605 H       1  UNL1        0.2106
     15 O          19.0593   74.5492   -8.8017 O.2     1  UNL1       -0.2464
     16 O          14.8158   76.1762   -8.0353 O.2     1  UNL1       -0.2670
     17 N          17.4078   73.0463   -8.1152 N.ar    1  UNL1       -0.2551
     18 N          16.9457   75.3571   -8.4197 N.ar    1  UNL1       -0.2743
     19 C          17.8934   74.3268   -8.4687 C.ar    1  UNL1        0.3323
     20 C          16.0755   72.8797   -7.7532 C.ar    1  UNL1        0.0869
     21 C          15.1849   73.8728   -7.7103 C.ar    1  UNL1        0.0795
     22 C          15.6109   75.2420   -8.0650 C.ar    1  UNL1        0.2626
     23 H          17.2613   76.2581   -8.6615 H       1  UNL1        0.1734
     24 O          21.3262   71.6770   -4.0243 O.3     1  UNL1       -0.2703
     25 P          21.8230   70.6687   -2.8627 P.3     1  UNL1        0.2208
     26 O          23.4252   70.6127   -3.0803 O.co2   1  UNL1       -0.4371
     27 O          21.1482   69.3278   -2.8817 O.2     1  UNL1       -0.5170
     28 O          21.6267   71.4969   -1.4914 O.3     1  UNL1       -0.2858
     29 O          23.2614   72.8731   -0.4664 O.3     1  UNL1       -0.3258
     30 O          21.1925   71.6842    2.9037 O.3     1  UNL1       -0.3794
     31 O          20.9214   74.3799    1.9509 O.3     1  UNL1       -0.3794
     32 O          21.6423   69.8055    0.7478 O.3     1  UNL1       -0.3775
     33 C          21.3422   72.0628    1.5327 C.3     1  UNL1        0.1715
     34 C          21.9220   73.4779    1.4865 C.3     1  UNL1        0.1694
     35 C          22.2801   71.0748    0.8415 C.3     1  UNL1        0.1967
     36 C          22.3592   73.8513    0.0636 C.3     1  UNL1        0.1761
     37 C          22.6925   71.5648   -0.5477 C.3     1  UNL1        0.2704
     38 H          20.5978   72.3073    3.3482 H       1  UNL1        0.2105
     39 H          20.6538   74.1328    2.8500 H       1  UNL1        0.2105
     40 H          21.3863   69.5062    1.6337 H       1  UNL1        0.2106
     41 O          24.4505   74.9781    0.3198 O.3     1  UNL1       -0.3794
     42 C          23.0835   75.1951    0.0220 C.3     1  UNL1        0.1693
     43 H          24.9241   75.8248    0.2966 H       1  UNL1        0.2105
@<TRIPOS>UNITY_ATOM_ATTR
2 1
charge -1
26 1
charge -1
@<TRIPOS>BOND
     1    25    28    1
     2    25    24    1
     3    25    26    1
     4    25    27    2
     5     1     4    1
     6     1    24    1
     7     1     2    1
     8     1     3    2
     9     6    11    1
    10     6    12    1
    11    29    36    1
    12    29    37    1
    13     7     9    1
    14     7    13    1
    15     8    10    1
    16     8    14    1
    17    28    37    1
    18     4     5    1
    19    30    33    1
    20    30    38    1
    21    31    34    1
    22    31    39    1
    23    32    35    1
    24    32    40    1
    25    41    42    1
    26    41    43    1
    27    15    19    2
    28    16    22    2
    29    17    12    1
    30    17    19   ar
    31    17    20   ar
    32    18    19   ar
    33    18    22   ar
    34    18    23    1
    35     9    10    1
    36     9    11    1
    37    10    12    1
    38    11     5    1
    39    33    34    1
    40    33    35    1
    41    34    36    1
    42    35    37    1
    43    36    42    1
    44    20    21   ar
    45    21    22   ar
@<TRIPOS>MOLECULE
*****
 43 45 0 0 0
SMALL
GASTEIGER

@<TRIPOS>ATOM
      1 P          19.5638   71.8783   -4.2847 P.3     1  UNL1        0.2189
      2 O          18.7933   71.1287   -3.0757 O.co2   1  UNL1       -0.4371
      3 O          19.3060   73.3532   -4.3827 O.2     1  UNL1       -0.5170
      4 O          19.1739   71.0085   -5.5922 O.3     1  UNL1       -0.3112
      5 C          19.8480   71.2778   -6.8091 C.3     1  UNL1        0.1811
      6 O          17.5820   71.1116   -7.5909 O.3     1  UNL1       -0.3308
      7 O          18.7448   70.9267  -10.3486 O.3     1  UNL1       -0.3794
      8 O          17.9348   73.5274  -10.2181 O.3     1  UNL1       -0.3779
      9 C          19.1901   71.6939   -9.2313 C.3     1  UNL1        0.1713
     10 C          18.2745   72.8796   -9.0091 C.3     1  UNL1        0.1895
     11 C          18.9541   70.8695   -7.9719 C.3     1  UNL1        0.1764
     12 C          17.0764   72.2309   -8.3368 C.3     1  UNL1        0.2383
     13 H          18.8857   71.4326  -11.1648 H       1  UNL1        0.2105
     14 H          18.7299   73.9239  -10.6071 H       1  UNL1        0.2106
     15 O          16.0198   71.4742   -5.8290 O.2     1  UNL1       -0.2464
     16 O          14.5112   75.7437   -4.9709 O.2     1  UNL1       -0.2670
     17 N          16.4028   73.1246   -7.4373 N.ar    1  UNL1       -0.2551
     18 N          15.2697   73.6008   -5.4037 N.ar    1  UNL1       -0.2743
     19 C          15.9087   72.6438   -6.2024 C.ar    1  UNL1        0.3323
     20 C          16.2381   74.4615   -7.7828 C.ar    1  UNL1        0.0869
     21 C          15.6252   75.3611   -7.0105 C.ar    1  UNL1        0.0795
     22 C          15.0801   74.9405   -5.7036 C.ar    1  UNL1        0.2626
     23 H          14.9170   73.2886   -4.5388 H       1  UNL1        0.1734
     24 O          21.1102   71.4810   -4.0319 O.3     1  UNL1       -0.2703
     25 P          21.8096   70.6426   -2.8400 P.3     1  UNL1        0.2208
     26 O          23.3864   70.7514   -3.1854 O.co2   1  UNL1       -0.4371
     27 O          21.3026   69.2367   -2.6968 O.2     1  UNL1       -0.5170
     28 O          21.6157   71.5605   -1.5266 O.3     1  UNL1       -0.2858
     29 O          23.2026   72.9779   -0.4828 O.3     1  UNL1       -0.3258
     30 O          21.1201   71.7428    2.8622 O.3     1  UNL1       -0.3794
     31 O          20.7951   74.4297    1.9015 O.3     1  UNL1       -0.3794
     32 O          21.6440   69.8729    0.7154 O.3     1  UNL1       -0.3775
     33 C          21.2782   72.1231    1.4926 C.3     1  UNL1        0.1715
     34 C          21.8235   73.5521    1.4516 C.3     1  UNL1        0.1694
     35 C          22.2490   71.1576    0.8153 C.3     1  UNL1        0.1967
     36 C          22.2698   73.9342    0.0339 C.3     1  UNL1        0.1761
     37 C          22.6673   71.6558   -0.5693 C.3     1  UNL1        0.2704
     38 H          20.5045   72.3516    3.2979 H       1  UNL1        0.2105
     39 H          20.5220   74.1772    2.7975 H       1  UNL1        0.2105
     40 H          21.3840   69.5685    1.5983 H       1  UNL1        0.2106
     41 O          21.9678   76.3030   -0.0469 O.3     1  UNL1       -0.3794
     42 C          22.9612   75.2954   -0.0006 C.3     1  UNL1        0.1693
     43 H          22.3933   77.1749   -0.0689 H       1  UNL1        0.2105
@<TRIPOS>UNITY_ATOM_ATTR
2 1
charge -1
26 1
charge -1
@<TRIPOS>BOND
     1    25    28    1
     2    25    24    1
     3    25    26    1
     4    25    27    2
     5     1     4    1
     6     1    24    1
     7     1     2    1
     8     1     3    2
     9     6    11    1
    10     6    12    1
    11    29    36    1
    12    29    37    1
    13     7     9    1
    14     7    13    1
    15     8    10    1
    16     8    14    1
    17    28    37    1
    18     4     5    1
    19    30    33    1
    20    30    38    1
    21    31    34    1
    22    31    39    1
    23    32    35    1
    24    32    40    1
    25    41    42    1
    26    41    43    1
    27    15    19    2
    28    16    22    2
    29    17    12    1
    30    17    19   ar
    31    17    20   ar
    32    18    19   ar
    33    18    22   ar
    34    18    23    1
    35     9    10    1
    36     9    11    1
    37    10    12    1
    38    11     5    1
    39    33    34    1
    40    33    35    1
    41    34    36    1
    42    35    37    1
    43    36    42    1
    44    20    21   ar
    45    21    22   ar
@<TRIPOS>MOLECULE
*****
 43 45 0 0 0
SMALL
GASTEIGER

@<TRIPOS>ATOM
      1 P          22.4153   74.3014   -5.8074 P.3     1  UNL1        0.2189
      2 O          22.7589   74.0700   -7.3713 O.co2   1  UNL1       -0.4371
      3 O          23.0383   75.5215   -5.1954 O.2     1  UNL1       -0.5170
      4 O          22.8007   72.8920   -5.1124 O.3     1  UNL1       -0.3112
      5 C          22.2766   72.6062   -3.8272 C.3     1  UNL1        0.1811
      6 O          22.4598   70.6257   -2.4790 O.3     1  UNL1       -0.3308
      7 O          20.2847   69.4814   -4.1967 O.3     1  UNL1       -0.3794
      8 O          18.9348   70.2301   -1.9486 O.3     1  UNL1       -0.3779
      9 C          20.4649   70.8219   -3.7430 C.3     1  UNL1        0.1713
     10 C          20.1185   70.9305   -2.2727 C.3     1  UNL1        0.1895
     11 C          21.9591   71.1197   -3.7406 C.3     1  UNL1        0.1764
     12 C          21.3503   70.3331   -1.6139 C.3     1  UNL1        0.2383
     13 H          19.3379   69.2683   -4.2071 H       1  UNL1        0.2105
     14 H          18.1800   70.6482   -2.3914 H       1  UNL1        0.2106
     15 O          22.8776   69.0745    0.4014 O.2     1  UNL1       -0.2464
     16 O          22.2681   72.5924    3.3159 O.2     1  UNL1       -0.2670
     17 N          21.6071   70.8977   -0.3190 N.ar    1  UNL1       -0.2551
     18 N          22.5730   70.8273    1.8509 N.ar    1  UNL1       -0.2743
     19 C          22.3856   70.1833    0.6212 C.ar    1  UNL1        0.3323
     20 C          21.0897   72.1465    0.0074 C.ar    1  UNL1        0.0869
     21 C          21.2765   72.7463    1.1850 C.ar    1  UNL1        0.0795
     22 C          22.0783   72.0672    2.2232 C.ar    1  UNL1        0.2626
     23 H          23.1118   70.3482    2.5217 H       1  UNL1        0.1734
     24 O          20.7990   74.2878   -5.7845 O.3     1  UNL1       -0.2703
     25 P          19.7345   73.3395   -6.5464 P.3     1  UNL1        0.2208
     26 O          18.4148   73.4409   -5.6159 O.co2   1  UNL1       -0.4371
     27 O          20.2184   71.9384   -6.7842 O.2     1  UNL1       -0.5170
     28 O          19.3510   74.1513   -7.8876 O.3     1  UNL1       -0.2858
     29 O          18.6364   72.4380   -9.3608 O.3     1  UNL1       -0.3258
     30 O          15.6404   72.1678   -6.5321 O.3     1  UNL1       -0.3794
     31 O          17.6458   70.1169   -6.6739 O.3     1  UNL1       -0.3794
     32 O          16.6767   74.7609   -7.2946 O.3     1  UNL1       -0.3775
     33 C          16.9732   72.3887   -7.0013 C.3     1  UNL1        0.1715
     34 C          17.4608   71.1077   -7.6810 C.3     1  UNL1        0.1694
     35 C          16.9678   73.5533   -7.9898 C.3     1  UNL1        0.1967
     36 C          18.7722   71.3484   -8.4410 C.3     1  UNL1        0.1761
     37 C          18.3026   73.6745   -8.7272 C.3     1  UNL1        0.2704
     38 H          15.6370   71.4299   -5.9036 H       1  UNL1        0.2105
     39 H          16.8106   69.9747   -6.2012 H       1  UNL1        0.2105
     40 H          15.8293   74.6715   -6.8323 H       1  UNL1        0.2106
     41 O          18.7810   70.3167  -10.5961 O.3     1  UNL1       -0.3794
     42 C          19.1938   70.1272   -9.2552 C.3     1  UNL1        0.1693
     43 H          19.0429   69.5472  -11.1262 H       1  UNL1        0.2105
@<TRIPOS>UNITY_ATOM_ATTR
2 1
charge -1
26 1
charge -1
@<TRIPOS>BOND
     1    25    28    1
     2    25    24    1
     3    25    26    1
     4    25    27    2
     5     1     4    1
     6     1    24    1
     7     1     2    1
     8     1     3    2
     9     6    11    1
    10     6    12    1
    11    29    36    1
    12    29    37    1
    13     7     9    1
    14     7    13    1
    15     8    10    1
    16     8    14    1
    17    28    37    1
    18     4     5    1
    19    30    33    1
    20    30    38    1
    21    31    34    1
    22    31    39    1
    23    32    35    1
    24    32    40    1
    25    41    42    1
    26    41    43    1
    27    15    19    2
    28    16    22    2
    29    17    12    1
    30    17    19   ar
    31    17    20   ar
    32    18    19   ar
    33    18    22   ar
    34    18    23    1
    35     9    10    1
    36     9    11    1
    37    10    12    1
    38    11     5    1
    39    33    34    1
    40    33    35    1
    41    34    36    1
    42    35    37    1
    43    36    42    1
    44    20    21   ar
    45    21    22   ar
