@<TRIPOS>MOLECULE
GDU
 43 45 0 0 0
SMALL
GASTEIGER

@<TRIPOS>ATOM
      1 P          22.1251   70.9453   -2.6959 P.3     1  UNL1        0.2189
      2 O          21.5236   69.6102   -2.4828 O.2     1  UNL1       -0.5170
      3 O          23.5798   70.7776   -3.3659 O.3     1  UNL1       -0.4371
      4 O          21.1819   71.8099   -3.6703 O.3     1  UNL1       -0.3112
      5 C          20.1920   72.4281   -2.8466 C.3     1  UNL1        0.1811
      6 C          17.9295   71.3964   -5.4435 C.3     1  UNL1        0.2383
      7 C          18.0487   70.1593   -4.5171 C.3     1  UNL1        0.1895
      8 O          16.8372   69.4006   -4.5212 O.3     1  UNL1       -0.3779
      9 C          18.2872   70.8130   -3.1311 C.3     1  UNL1        0.1713
     10 C          18.8089   72.2225   -3.4670 C.3     1  UNL1        0.1764
     11 O          18.8966   72.3193   -4.8991 O.3     1  UNL1       -0.3308
     12 O          17.0639   70.8869   -2.3964 O.3     1  UNL1       -0.3794
     13 H          16.9770   68.6488   -3.9287 H       1  UNL1        0.2106
     14 H          16.7582   69.9786   -2.2692 H       1  UNL1        0.2105
     15 N          18.2711   71.0454   -6.8230 N.ar    1  UNL1       -0.2551
     16 C          17.2975   70.6998   -7.6838 C.ar    1  UNL1        0.3323
     17 N          17.5844   70.3761   -8.9585 N.ar    1  UNL1       -0.2743
     18 C          18.8597   70.3838   -9.3915 C.ar    1  UNL1        0.2626
     19 C          19.8962   70.7402   -8.4943 C.ar    1  UNL1        0.0795
     20 C          19.5803   71.0646   -7.2225 C.ar    1  UNL1        0.0869
     21 O          16.1423   70.6888   -7.3078 O.2     1  UNL1       -0.2464
     22 O          19.1208   70.0863  -10.5438 O.2     1  UNL1       -0.2670
     23 H          16.8687   70.1333   -9.5673 H       1  UNL1        0.1734
     24 O          22.2713   71.6991   -1.2806 O.3     1  UNL1       -0.2703
     25 P          21.8036   70.6573   -0.1466 P.3     1  UNL1        0.2208
     26 O          20.7010   69.8210   -0.6699 O.2     1  UNL1       -0.5170
     27 O          23.0446   69.7148    0.2606 O.3     1  UNL1       -0.4371
     28 O          21.2970   71.4653    1.1498 O.3     1  UNL1       -0.2858
     29 C          22.2935   72.4454    1.4435 C.3     1  UNL1        0.2704
     30 C          22.7596   72.2797    2.8908 C.3     1  UNL1        0.1967
     31 C          21.5548   72.4369    3.8237 C.3     1  UNL1        0.1715
     32 C          20.8623   73.7679    3.5097 C.3     1  UNL1        0.1694
     33 C          20.5381   73.8197    2.0146 C.3     1  UNL1        0.1761
     34 O          23.3343   70.9831    3.0631 O.3     1  UNL1       -0.3775
     35 O          21.9962   72.4315    5.1829 O.3     1  UNL1       -0.3794
     36 O          21.7287   74.8501    3.8535 O.3     1  UNL1       -0.3794
     37 O          21.7454   73.7483    1.2575 O.3     1  UNL1       -0.3258
     38 H          24.0823   70.9262    2.4531 H       1  UNL1        0.2106
     39 H          22.4345   71.5841    5.3315 H       1  UNL1        0.2105
     40 H          21.9099   74.7739    4.7993 H       1  UNL1        0.2105
     41 C          19.8153   75.1306    1.6964 C.3     1  UNL1        0.1693
     42 O          19.6886   75.2721    0.2805 O.3     1  UNL1       -0.3794
     43 H          19.2285   76.1080    0.1228 H       1  UNL1        0.2105
@<TRIPOS>BOND
     1    15    16   ar
     2    15    20   ar
     3    15     6    1
     4    16    17   ar
     5    16    21    2
     6    17    18   ar
     7    17    23    1
     8    18    19   ar
     9    18    22    2
    10    19    20   ar
    11     6     7    1
    12     6    11    1
    13     7     8    1
    14     7     9    1
    15     8    13    1
    16     9    10    1
    17     9    12    1
    18    10    11    1
    19    10     5    1
    20    12    14    1
    21     5     4    1
    22     4     1    1
    23     1     2    2
    24     1     3    1
    25     1    24    1
    26    24    25    1
    27    25    26    2
    28    25    27    1
    29    25    28    1
    30    28    29    1
    31    29    30    1
    32    29    37    1
    33    30    31    1
    34    30    34    1
    35    31    32    1
    36    31    35    1
    37    32    33    1
    38    32    36    1
    39    33    41    1
    40    33    37    1
    41    41    42    1
    42    34    38    1
    43    35    39    1
    44    36    40    1
    45    42    43    1
@<TRIPOS>MOLECULE
GDU
 43 45 0 0 0
SMALL
GASTEIGER

@<TRIPOS>ATOM
      1 P          22.0740   70.8874   -2.4561 P.3     1  UNL1        0.2189
      2 O          21.4868   69.6015   -2.0189 O.2     1  UNL1       -0.5170
      3 O          23.5058   70.6179   -3.1418 O.3     1  UNL1       -0.4371
      4 O          21.0938   71.5915   -3.5193 O.3     1  UNL1       -0.3112
      5 C          20.1113   72.3051   -2.7670 C.3     1  UNL1        0.1811
      6 C          17.8877   71.3439   -5.4239 C.3     1  UNL1        0.2383
      7 C          17.9823   70.0869   -4.5216 C.3     1  UNL1        0.1895
      8 O          16.7659   69.3371   -4.5626 O.3     1  UNL1       -0.3779
      9 C          18.2009   70.7099   -3.1183 C.3     1  UNL1        0.1713
     10 C          18.7380   72.1223   -3.4155 C.3     1  UNL1        0.1764
     11 O          18.8514   72.2483   -4.8436 O.3     1  UNL1       -0.3308
     12 O          16.9654   70.7773   -2.4036 O.3     1  UNL1       -0.3794
     13 H          16.8902   68.5722   -3.9836 H       1  UNL1        0.2106
     14 H          16.6514   69.8687   -2.3008 H       1  UNL1        0.2105
     15 N          18.2511   71.0192   -6.8042 N.ar    1  UNL1       -0.2551
     16 C          17.2915   70.6879   -7.6861 C.ar    1  UNL1        0.3323
     17 N          17.5984   70.3885   -8.9620 N.ar    1  UNL1       -0.2743
     18 C          18.8802   70.4065   -9.3753 C.ar    1  UNL1        0.2626
     19 C          19.9022   70.7480   -8.4559 C.ar    1  UNL1        0.0795
     20 C          19.5662   71.0481   -7.1833 C.ar    1  UNL1        0.0869
     21 O          16.1307   70.6678   -7.3281 O.2     1  UNL1       -0.2464
     22 O          19.1595   70.1309  -10.5288 O.2     1  UNL1       -0.2670
     23 H          16.8926   70.1558   -9.5861 H       1  UNL1        0.1734
     24 O          22.2644   71.8507   -1.1800 O.3     1  UNL1       -0.2703
     25 P          22.4453   70.8957    0.1027 P.3     1  UNL1        0.2208
     26 O          21.1828   70.1672    0.3569 O.2     1  UNL1       -0.5170
     27 O          23.6272   69.8383   -0.1783 O.3     1  UNL1       -0.4371
     28 O          22.8195   71.7879    1.3888 O.3     1  UNL1       -0.2858
     29 C          22.0177   72.9679    1.3228 C.3     1  UNL1        0.2704
     30 C          22.9193   74.1848    1.1087 C.3     1  UNL1        0.1967
     31 C          23.9191   74.2742    2.2658 C.3     1  UNL1        0.1715
     32 C          23.1420   74.2625    3.5870 C.3     1  UNL1        0.1694
     33 C          22.2243   73.0377    3.6138 C.3     1  UNL1        0.1761
     34 O          23.6248   74.0464   -0.1259 O.3     1  UNL1       -0.3775
     35 O          24.6704   75.4852    2.1586 O.3     1  UNL1       -0.3794
     36 O          22.3605   75.4534    3.6922 O.3     1  UNL1       -0.3794
     37 O          21.2886   73.1136    2.5393 O.3     1  UNL1       -0.3258
     38 H          22.9578   73.9867   -0.8232 H       1  UNL1        0.2106
     39 H          25.1315   75.4544    1.3108 H       1  UNL1        0.2105
     40 H          22.9775   76.1963    3.6652 H       1  UNL1        0.2105
     41 C          21.4686   72.9978    4.9440 C.3     1  UNL1        0.1693
     42 O          22.3597   73.3386    6.0075 O.3     1  UNL1       -0.3794
     43 H          21.8455   73.3026    6.8258 H       1  UNL1        0.2105
@<TRIPOS>BOND
     1    15    16   ar
     2    15    20   ar
     3    15     6    1
     4    16    17   ar
     5    16    21    2
     6    17    18   ar
     7    17    23    1
     8    18    19   ar
     9    18    22    2
    10    19    20   ar
    11     6     7    1
    12     6    11    1
    13     7     8    1
    14     7     9    1
    15     8    13    1
    16     9    10    1
    17     9    12    1
    18    10    11    1
    19    10     5    1
    20    12    14    1
    21     5     4    1
    22     4     1    1
    23     1     2    2
    24     1     3    1
    25     1    24    1
    26    24    25    1
    27    25    26    2
    28    25    27    1
    29    25    28    1
    30    28    29    1
    31    29    30    1
    32    29    37    1
    33    30    31    1
    34    30    34    1
    35    31    32    1
    36    31    35    1
    37    32    33    1
    38    32    36    1
    39    33    41    1
    40    33    37    1
    41    41    42    1
    42    34    38    1
    43    35    39    1
    44    36    40    1
    45    42    43    1
@<TRIPOS>MOLECULE
GDU
 43 45 0 0 0
SMALL
GASTEIGER

@<TRIPOS>ATOM
      1 P          22.9341   72.0967   -3.1450 P.3     1  UNL1        0.2189
      2 O          22.9051   72.6636   -1.7785 O.2     1  UNL1       -0.5170
      3 O          23.3928   70.5547   -3.0765 O.3     1  UNL1       -0.4371
      4 O          21.4669   72.1917   -3.7971 O.3     1  UNL1       -0.3112
      5 C          20.5396   71.7819   -2.7908 C.3     1  UNL1        0.1811
      6 C          18.1176   71.1753   -5.3780 C.3     1  UNL1        0.2383
      7 C          18.1415   69.8637   -4.5521 C.3     1  UNL1        0.1895
      8 O          16.8625   69.2257   -4.5713 O.3     1  UNL1       -0.3779
      9 C          18.4801   70.3815   -3.1299 C.3     1  UNL1        0.1713
     10 C          19.1266   71.7572   -3.3766 C.3     1  UNL1        0.1764
     11 O          19.1842   71.9572   -4.7996 O.3     1  UNL1       -0.3308
     12 O          17.2902   70.5131   -2.3497 O.3     1  UNL1       -0.3794
     13 H          16.9448   68.4200   -4.0422 H       1  UNL1        0.2106
     14 H          16.9014   69.6306   -2.2808 H       1  UNL1        0.2105
     15 N          18.3858   70.9026   -6.7910 N.ar    1  UNL1       -0.2551
     16 C          17.3609   70.6928   -7.6359 C.ar    1  UNL1        0.3323
     17 N          17.5800   70.4435   -8.9404 N.ar    1  UNL1       -0.2743
     18 C          18.8373   70.3903   -9.4207 C.ar    1  UNL1        0.2626
     19 C          19.9269   70.6037   -8.5412 C.ar    1  UNL1        0.0795
     20 C          19.6788   70.8559   -7.2384 C.ar    1  UNL1        0.0869
     21 O          16.2213   70.7381   -7.2173 O.2     1  UNL1       -0.2464
     22 O          19.0368   70.1600  -10.6004 O.2     1  UNL1       -0.2670
     23 H          16.8283   70.2987   -9.5368 H       1  UNL1        0.1734
     24 O          23.9785   72.9262   -4.0470 O.3     1  UNL1       -0.2703
     25 P          23.5557   74.4757   -3.9445 P.3     1  UNL1        0.2208
     26 O          22.2734   74.5897   -3.2153 O.2     1  UNL1       -0.5170
     27 O          24.6968   75.2918   -3.1534 O.3     1  UNL1       -0.4371
     28 O          23.3889   75.0866   -5.4241 O.3     1  UNL1       -0.2858
     29 C          22.0374   74.8503   -5.8206 C.3     1  UNL1        0.2704
     30 C          22.0174   73.9067   -7.0242 C.3     1  UNL1        0.1967
     31 C          22.8138   74.5412   -8.1685 C.3     1  UNL1        0.1715
     32 C          22.2592   75.9458   -8.4316 C.3     1  UNL1        0.1694
     33 C          22.2627   76.7360   -7.1207 C.3     1  UNL1        0.1761
     34 O          22.6088   72.6574   -6.6627 O.3     1  UNL1       -0.3775
     35 O          22.6821   73.7420   -9.3460 O.3     1  UNL1       -0.3794
     36 O          20.9250   75.8467   -8.9318 O.3     1  UNL1       -0.3794
     37 O          21.4220   76.0890   -6.1664 O.3     1  UNL1       -0.3258
     38 H          22.0808   72.2985   -5.9365 H       1  UNL1        0.2106
     39 H          23.0310   72.8677   -9.1313 H       1  UNL1        0.2105
     40 H          20.9706   75.3381   -9.7519 H       1  UNL1        0.2105
     41 C          21.7426   78.1518   -7.3792 C.3     1  UNL1        0.1693
     42 O          21.9713   78.9607   -6.2240 O.3     1  UNL1       -0.3794
     43 H          21.6308   79.8426   -6.4280 H       1  UNL1        0.2105
@<TRIPOS>BOND
     1    15    16   ar
     2    15    20   ar
     3    15     6    1
     4    16    17   ar
     5    16    21    2
     6    17    18   ar
     7    17    23    1
     8    18    19   ar
     9    18    22    2
    10    19    20   ar
    11     6     7    1
    12     6    11    1
    13     7     8    1
    14     7     9    1
    15     8    13    1
    16     9    10    1
    17     9    12    1
    18    10    11    1
    19    10     5    1
    20    12    14    1
    21     5     4    1
    22     4     1    1
    23     1     2    2
    24     1     3    1
    25     1    24    1
    26    24    25    1
    27    25    26    2
    28    25    27    1
    29    25    28    1
    30    28    29    1
    31    29    30    1
    32    29    37    1
    33    30    31    1
    34    30    34    1
    35    31    32    1
    36    31    35    1
    37    32    33    1
    38    32    36    1
    39    33    41    1
    40    33    37    1
    41    41    42    1
    42    34    38    1
    43    35    39    1
    44    36    40    1
    45    42    43    1
@<TRIPOS>MOLECULE
GDU
 43 45 0 0 0
SMALL
GASTEIGER

@<TRIPOS>ATOM
      1 P          21.8260   71.0099   -0.4653 P.3     1  UNL1        0.2189
      2 O          21.2495   71.2491    0.8763 O.2     1  UNL1       -0.5170
      3 O          23.0057   69.9194   -0.3557 O.3     1  UNL1       -0.4371
      4 O          20.6799   70.4632   -1.4526 O.3     1  UNL1       -0.3112
      5 C          20.7661   71.2328   -2.6529 C.3     1  UNL1        0.1811
      6 C          18.2642   71.1326   -5.2331 C.3     1  UNL1        0.2383
      7 C          18.0897   69.7947   -4.4697 C.3     1  UNL1        0.1895
      8 O          16.7273   69.3634   -4.5016 O.3     1  UNL1       -0.3779
      9 C          18.5127   70.1849   -3.0296 C.3     1  UNL1        0.1713
     10 C          19.3629   71.4547   -3.2203 C.3     1  UNL1        0.1764
     11 O          19.4423   71.7117   -4.6330 O.3     1  UNL1       -0.3308
     12 O          17.3621   70.4608   -2.2283 O.3     1  UNL1       -0.3794
     13 H          16.6871   68.5301   -4.0119 H       1  UNL1        0.2106
     14 H          16.8419   69.6466   -2.1955 H       1  UNL1        0.2105
     15 N          18.4786   70.8901   -6.6607 N.ar    1  UNL1       -0.2551
     16 C          17.4211   70.7525   -7.4800 C.ar    1  UNL1        0.3323
     17 N          17.5907   70.5324   -8.7970 N.ar    1  UNL1       -0.2743
     18 C          18.8298   70.4363   -9.3163 C.ar    1  UNL1        0.2626
     19 C          19.9531   70.5735   -8.4644 C.ar    1  UNL1        0.0795
     20 C          19.7546   70.7979   -7.1481 C.ar    1  UNL1        0.0869
     21 O          16.2973   70.8372   -7.0261 O.2     1  UNL1       -0.2464
     22 O          18.9843   70.2324  -10.5076 O.2     1  UNL1       -0.2670
     23 H          16.8162   70.4399   -9.3743 H       1  UNL1        0.1734
     24 O          22.4232   72.3880   -1.0453 O.3     1  UNL1       -0.2703
     25 P          21.8675   73.5698   -0.1048 P.3     1  UNL1        0.2208
     26 O          22.2249   74.8788   -0.6947 O.2     1  UNL1       -0.5170
     27 O          20.2652   73.4539    0.0120 O.3     1  UNL1       -0.4371
     28 O          22.5215   73.4437    1.3602 O.3     1  UNL1       -0.2858
     29 C          22.4546   74.7393    1.9575 C.3     1  UNL1        0.2704
     30 C          23.7576   75.0226    2.7066 C.3     1  UNL1        0.1967
     31 C          23.9629   73.9444    3.7752 C.3     1  UNL1        0.1715
     32 C          22.7075   73.8783    4.6521 C.3     1  UNL1        0.1694
     33 C          21.4834   73.6796    3.7548 C.3     1  UNL1        0.1761
     34 O          24.8518   75.0028    1.7881 O.3     1  UNL1       -0.3775
     35 O          25.0967   74.2756    4.5798 O.3     1  UNL1       -0.3794
     36 O          22.5740   75.0951    5.3881 O.3     1  UNL1       -0.3794
     37 O          21.3550   74.7866    2.8638 O.3     1  UNL1       -0.3258
     38 H          24.6771   75.6905    1.1313 H       1  UNL1        0.2106
     39 H          25.8577   74.3179    3.9871 H       1  UNL1        0.2105
     40 H          23.3672   75.1811    5.9328 H       1  UNL1        0.2105
     41 C          20.2275   73.5779    4.6234 C.3     1  UNL1        0.1693
     42 O          19.1028   74.0699    3.8927 O.3     1  UNL1       -0.3794
     43 H          18.3340   73.9878    4.4735 H       1  UNL1        0.2105
@<TRIPOS>BOND
     1    15    16   ar
     2    15    20   ar
     3    15     6    1
     4    16    17   ar
     5    16    21    2
     6    17    18   ar
     7    17    23    1
     8    18    19   ar
     9    18    22    2
    10    19    20   ar
    11     6     7    1
    12     6    11    1
    13     7     8    1
    14     7     9    1
    15     8    13    1
    16     9    10    1
    17     9    12    1
    18    10    11    1
    19    10     5    1
    20    12    14    1
    21     5     4    1
    22     4     1    1
    23     1     2    2
    24     1     3    1
    25     1    24    1
    26    24    25    1
    27    25    26    2
    28    25    27    1
    29    25    28    1
    30    28    29    1
    31    29    30    1
    32    29    37    1
    33    30    31    1
    34    30    34    1
    35    31    32    1
    36    31    35    1
    37    32    33    1
    38    32    36    1
    39    33    41    1
    40    33    37    1
    41    41    42    1
    42    34    38    1
    43    35    39    1
    44    36    40    1
    45    42    43    1
@<TRIPOS>MOLECULE
GDU
 43 45 0 0 0
SMALL
GASTEIGER

@<TRIPOS>ATOM
      1 P          22.9016   72.0369   -3.1634 P.3     1  UNL1        0.2189
      2 O          22.8078   72.5454   -1.7769 O.2     1  UNL1       -0.5170
      3 O          23.4483   70.5224   -3.1436 O.3     1  UNL1       -0.4371
      4 O          21.4468   72.0734   -3.8482 O.3     1  UNL1       -0.3112
      5 C          20.4937   71.8537   -2.8071 C.3     1  UNL1        0.1811
      6 C          18.1021   71.1908   -5.4087 C.3     1  UNL1        0.2383
      7 C          18.1380   69.8866   -4.5716 C.3     1  UNL1        0.1895
      8 O          16.8685   69.2301   -4.5958 O.3     1  UNL1       -0.3779
      9 C          18.4574   70.4210   -3.1511 C.3     1  UNL1        0.1713
     10 C          19.0861   71.8038   -3.4041 C.3     1  UNL1        0.1764
     11 O          19.1525   71.9927   -4.8282 O.3     1  UNL1       -0.3308
     12 O          17.2593   70.5418   -2.3818 O.3     1  UNL1       -0.3794
     13 H          16.9580   68.4300   -4.0593 H       1  UNL1        0.2106
     14 H          16.8827   69.6544   -2.3085 H       1  UNL1        0.2105
     15 N          18.3858   70.9102   -6.8171 N.ar    1  UNL1       -0.2551
     16 C          17.3705   70.6897   -7.6708 C.ar    1  UNL1        0.3323
     17 N          17.6039   70.4330   -8.9714 N.ar    1  UNL1       -0.2743
     18 C          18.8661   70.3831   -9.4387 C.ar    1  UNL1        0.2626
     19 C          19.9458   70.6077   -8.5499 C.ar    1  UNL1        0.0795
     20 C          19.6834   70.8672   -7.2513 C.ar    1  UNL1        0.0869
     21 O          16.2265   70.7319   -7.2639 O.2     1  UNL1       -0.2464
     22 O          19.0786   70.1462  -10.6148 O.2     1  UNL1       -0.2670
     23 H          16.8589   70.2805   -9.5742 H       1  UNL1        0.1734
     24 O          23.9159   72.9612   -4.0055 O.3     1  UNL1       -0.2703
     25 P          23.1358   74.3296   -4.3354 P.3     1  UNL1        0.2208
     26 O          22.1184   74.0777   -5.3798 O.2     1  UNL1       -0.5170
     27 O          22.4124   74.8697   -3.0016 O.3     1  UNL1       -0.4371
     28 O          24.1834   75.4327   -4.8604 O.3     1  UNL1       -0.2858
     29 C          23.4272   76.4263   -5.5539 C.3     1  UNL1        0.2704
     30 C          23.9451   76.5516   -6.9876 C.3     1  UNL1        0.1967
     31 C          25.4291   76.9296   -6.9504 C.3     1  UNL1        0.1715
     32 C          25.5937   78.1842   -6.0853 C.3     1  UNL1        0.1694
     33 C          24.9521   77.9340   -4.7183 C.3     1  UNL1        0.1761
     34 O          23.7841   75.3043   -7.6654 O.3     1  UNL1       -0.3775
     35 O          25.8905   77.1941   -8.2769 O.3     1  UNL1       -0.3794
     36 O          24.9551   79.2913   -6.7229 O.3     1  UNL1       -0.3794
     37 O          23.5581   77.6763   -4.8808 O.3     1  UNL1       -0.3258
     38 H          22.8384   75.1031   -7.6585 H       1  UNL1        0.2106
     39 H          25.7572   76.3847   -8.7862 H       1  UNL1        0.2105
     40 H          25.3863   79.4079   -7.5795 H       1  UNL1        0.2105
     41 C          25.1410   79.1689   -3.8344 C.3     1  UNL1        0.1693
     42 O          26.2480   78.9599   -2.9559 O.3     1  UNL1       -0.3794
     43 H          26.3334   79.7592   -2.4182 H       1  UNL1        0.2105
@<TRIPOS>BOND
     1    15    16   ar
     2    15    20   ar
     3    15     6    1
     4    16    17   ar
     5    16    21    2
     6    17    18   ar
     7    17    23    1
     8    18    19   ar
     9    18    22    2
    10    19    20   ar
    11     6     7    1
    12     6    11    1
    13     7     8    1
    14     7     9    1
    15     8    13    1
    16     9    10    1
    17     9    12    1
    18    10    11    1
    19    10     5    1
    20    12    14    1
    21     5     4    1
    22     4     1    1
    23     1     2    2
    24     1     3    1
    25     1    24    1
    26    24    25    1
    27    25    26    2
    28    25    27    1
    29    25    28    1
    30    28    29    1
    31    29    30    1
    32    29    37    1
    33    30    31    1
    34    30    34    1
    35    31    32    1
    36    31    35    1
    37    32    33    1
    38    32    36    1
    39    33    41    1
    40    33    37    1
    41    41    42    1
    42    34    38    1
    43    35    39    1
    44    36    40    1
    45    42    43    1
@<TRIPOS>MOLECULE
GDU
 43 45 0 0 0
SMALL
GASTEIGER

@<TRIPOS>ATOM
      1 P          22.9346   72.0842   -3.1218 P.3     1  UNL1        0.2189
      2 O          22.8851   72.6418   -1.7521 O.2     1  UNL1       -0.5170
      3 O          23.4052   70.5455   -3.0581 O.3     1  UNL1       -0.4371
      4 O          21.4744   72.1715   -3.7903 O.3     1  UNL1       -0.3112
      5 C          20.5426   71.7104   -2.8107 C.3     1  UNL1        0.1811
      6 C          18.1174   71.1736   -5.4103 C.3     1  UNL1        0.2383
      7 C          18.1089   69.8568   -4.5923 C.3     1  UNL1        0.1895
      8 O          16.8161   69.2477   -4.6200 O.3     1  UNL1       -0.3779
      9 C          18.4536   70.3583   -3.1658 C.3     1  UNL1        0.1713
     10 C          19.1316   71.7207   -3.4017 C.3     1  UNL1        0.1764
     11 O          19.1990   71.9279   -4.8232 O.3     1  UNL1       -0.3308
     12 O          17.2641   70.5117   -2.3891 O.3     1  UNL1       -0.3794
     13 H          16.8785   68.4371   -4.0955 H       1  UNL1        0.2106
     14 H          16.8555   69.6377   -2.3269 H       1  UNL1        0.2105
     15 N          18.3847   70.9034   -6.8239 N.ar    1  UNL1       -0.2551
     16 C          17.3593   70.6941   -7.6684 C.ar    1  UNL1        0.3323
     17 N          17.5776   70.4472   -8.9735 N.ar    1  UNL1       -0.2743
     18 C          18.8346   70.3959   -9.4548 C.ar    1  UNL1        0.2626
     19 C          19.9247   70.6087   -8.5758 C.ar    1  UNL1        0.0795
     20 C          19.6774   70.8586   -7.2724 C.ar    1  UNL1        0.0869
     21 O          16.2200   70.7378   -7.2488 O.2     1  UNL1       -0.2464
     22 O          19.0333   70.1677  -10.6350 O.2     1  UNL1       -0.2670
     23 H          16.8255   70.3028   -9.5695 H       1  UNL1        0.1734
     24 O          23.9825   72.9282   -4.0062 O.3     1  UNL1       -0.2703
     25 P          23.4325   74.4395   -4.0651 P.3     1  UNL1        0.2208
     26 O          22.3236   74.5987   -3.0986 O.2     1  UNL1       -0.5170
     27 O          24.6219   75.4583   -3.6889 O.3     1  UNL1       -0.4371
     28 O          22.9017   74.7611   -5.5500 O.3     1  UNL1       -0.2858
     29 C          23.5676   75.9489   -5.9805 C.3     1  UNL1        0.2704
     30 C          22.5829   77.1192   -5.9637 C.3     1  UNL1        0.1967
     31 C          21.4058   76.7936   -6.8883 C.3     1  UNL1        0.1715
     32 C          21.9559   76.4239   -8.2704 C.3     1  UNL1        0.1694
     33 C          22.9875   75.3041   -8.1122 C.3     1  UNL1        0.1761
     34 O          22.1056   77.3240   -4.6327 O.3     1  UNL1       -0.3775
     35 O          20.5519   77.9344   -6.9982 O.3     1  UNL1       -0.3794
     36 O          22.5730   77.5686   -8.8609 O.3     1  UNL1       -0.3794
     37 O          24.0700   75.7579   -7.3010 O.3     1  UNL1       -0.3258
     38 H          22.8790   77.5184   -4.0859 H       1  UNL1        0.2106
     39 H          20.2400   78.1374   -6.1073 H       1  UNL1        0.2105
     40 H          21.8898   78.2476   -8.9355 H       1  UNL1        0.2105
     41 C          23.5183   74.9035   -9.4906 C.3     1  UNL1        0.1693
     42 O          24.2262   73.6670   -9.3866 O.3     1  UNL1       -0.3794
     43 H          24.5428   73.4502  -10.2743 H       1  UNL1        0.2105
@<TRIPOS>BOND
     1    15    16   ar
     2    15    20   ar
     3    15     6    1
     4    16    17   ar
     5    16    21    2
     6    17    18   ar
     7    17    23    1
     8    18    19   ar
     9    18    22    2
    10    19    20   ar
    11     6     7    1
    12     6    11    1
    13     7     8    1
    14     7     9    1
    15     8    13    1
    16     9    10    1
    17     9    12    1
    18    10    11    1
    19    10     5    1
    20    12    14    1
    21     5     4    1
    22     4     1    1
    23     1     2    2
    24     1     3    1
    25     1    24    1
    26    24    25    1
    27    25    26    2
    28    25    27    1
    29    25    28    1
    30    28    29    1
    31    29    30    1
    32    29    37    1
    33    30    31    1
    34    30    34    1
    35    31    32    1
    36    31    35    1
    37    32    33    1
    38    32    36    1
    39    33    41    1
    40    33    37    1
    41    41    42    1
    42    34    38    1
    43    35    39    1
    44    36    40    1
    45    42    43    1
@<TRIPOS>MOLECULE
GDU
 43 45 0 0 0
SMALL
GASTEIGER

@<TRIPOS>ATOM
      1 P          21.9561   70.8932   -0.4951 P.3     1  UNL1        0.2189
      2 O          21.1054   69.7325   -0.1506 O.2     1  UNL1       -0.5170
      3 O          23.2674   70.3835   -1.2786 O.3     1  UNL1       -0.4371
      4 O          21.1298   71.9050   -1.4334 O.3     1  UNL1       -0.3112
      5 C          21.0150   71.2818   -2.7137 C.3     1  UNL1        0.1811
      6 C          18.3975   71.0029   -5.1627 C.3     1  UNL1        0.2383
      7 C          18.4094   69.6277   -4.4476 C.3     1  UNL1        0.1895
      8 O          17.1010   69.0524   -4.4267 O.3     1  UNL1       -0.3779
      9 C          18.8685   70.0097   -3.0163 C.3     1  UNL1        0.1713
     10 C          19.5667   71.3702   -3.1979 C.3     1  UNL1        0.1764
     11 O          19.5390   71.6846   -4.6009 O.3     1  UNL1       -0.3308
     12 O          17.7418   70.1302   -2.1457 O.3     1  UNL1       -0.3794
     13 H          17.1772   68.2027   -3.9707 H       1  UNL1        0.2106
     14 H          17.3138   69.2637   -2.1199 H       1  UNL1        0.2105
     15 N          18.5562   70.8364   -6.6084 N.ar    1  UNL1       -0.2551
     16 C          17.4688   70.6926   -7.3864 C.ar    1  UNL1        0.3323
     17 N          17.5869   70.5414   -8.7187 N.ar    1  UNL1       -0.2743
     18 C          18.8039   70.5218   -9.2956 C.ar    1  UNL1        0.2626
     19 C          19.9584   70.6664   -8.4878 C.ar    1  UNL1        0.0795
     20 C          19.8113   70.8208   -7.1548 C.ar    1  UNL1        0.0869
     21 O          16.3644   70.7087   -6.8804 O.2     1  UNL1       -0.2464
     22 O          18.9120   70.3802  -10.5009 O.2     1  UNL1       -0.2670
     23 H          16.7912   70.4432   -9.2655 H       1  UNL1        0.1734
     24 O          22.3997   71.6515    0.8541 O.3     1  UNL1       -0.2703
     25 P          22.0423   73.2078    0.6537 P.3     1  UNL1        0.2208
     26 O          22.9130   73.7826   -0.3954 O.2     1  UNL1       -0.5170
     27 O          20.5009   73.3513    0.2091 O.3     1  UNL1       -0.4371
     28 O          22.2759   73.9957    2.0375 O.3     1  UNL1       -0.2858
     29 C          22.8010   73.0499    2.9700 C.3     1  UNL1        0.2704
     30 C          21.6884   72.5970    3.9168 C.3     1  UNL1        0.1967
     31 C          21.1258   73.8208    4.6464 C.3     1  UNL1        0.1715
     32 C          22.2851   74.5697    5.3132 C.3     1  UNL1        0.1694
     33 C          23.3523   74.8749    4.2591 C.3     1  UNL1        0.1761
     34 O          20.6493   71.9654    3.1669 O.3     1  UNL1       -0.3775
     35 O          20.1891   73.3987    5.6399 O.3     1  UNL1       -0.3794
     36 O          22.8458   73.7592    6.3470 O.3     1  UNL1       -0.3794
     37 O          23.8547   73.6551    3.7156 O.3     1  UNL1       -0.3258
     38 H          21.0493   71.2071    2.7199 H       1  UNL1        0.2106
     39 H          19.4865   72.9238    5.1783 H       1  UNL1        0.2105
     40 H          22.1389   73.5880    6.9829 H       1  UNL1        0.2105
     41 C          24.4994   75.6531    4.9077 C.3     1  UNL1        0.1693
     42 O          25.5963   74.7702    5.1489 O.3     1  UNL1       -0.3794
     43 H          26.2965   75.2985    5.5563 H       1  UNL1        0.2105
@<TRIPOS>BOND
     1    15    16   ar
     2    15    20   ar
     3    15     6    1
     4    16    17   ar
     5    16    21    2
     6    17    18   ar
     7    17    23    1
     8    18    19   ar
     9    18    22    2
    10    19    20   ar
    11     6     7    1
    12     6    11    1
    13     7     8    1
    14     7     9    1
    15     8    13    1
    16     9    10    1
    17     9    12    1
    18    10    11    1
    19    10     5    1
    20    12    14    1
    21     5     4    1
    22     4     1    1
    23     1     2    2
    24     1     3    1
    25     1    24    1
    26    24    25    1
    27    25    26    2
    28    25    27    1
    29    25    28    1
    30    28    29    1
    31    29    30    1
    32    29    37    1
    33    30    31    1
    34    30    34    1
    35    31    32    1
    36    31    35    1
    37    32    33    1
    38    32    36    1
    39    33    41    1
    40    33    37    1
    41    41    42    1
    42    34    38    1
    43    35    39    1
    44    36    40    1
    45    42    43    1
@<TRIPOS>MOLECULE
GDU
 43 45 0 0 0
SMALL
GASTEIGER

@<TRIPOS>ATOM
      1 P          21.8244   74.4341   -7.0973 P.3     1  UNL1        0.2189
      2 O          23.1934   74.9711   -6.9331 O.2     1  UNL1       -0.5170
      3 O          20.9528   75.4508   -7.9914 O.3     1  UNL1       -0.4371
      4 O          21.8931   73.0021   -7.8263 O.3     1  UNL1       -0.3112
      5 C          21.3102   73.1678   -9.1198 C.3     1  UNL1        0.1811
      6 C          18.6153   71.1700   -7.8260 C.3     1  UNL1        0.2383
      7 C          17.9996   72.5804   -8.0120 C.3     1  UNL1        0.1895
      8 O          16.6063   72.4921   -8.3188 O.3     1  UNL1       -0.3779
      9 C          18.7992   73.1268   -9.2234 C.3     1  UNL1        0.1713
     10 C          20.0783   72.2695   -9.2449 C.3     1  UNL1        0.1764
     11 O          20.0133   71.3708   -8.1241 O.3     1  UNL1       -0.3308
     12 O          18.0546   72.9568  -10.4311 O.3     1  UNL1       -0.3794
     13 H          16.2853   73.3990   -8.4214 H       1  UNL1        0.2106
     14 H          17.2404   73.4689  -10.3326 H       1  UNL1        0.2105
     15 N          18.4431   70.7073   -6.4479 N.ar    1  UNL1       -0.2551
     16 C          17.2915   70.1175   -6.0816 C.ar    1  UNL1        0.3323
     17 N          17.1089   69.6799   -4.8218 N.ar    1  UNL1       -0.2743
     18 C          18.0790   69.8358   -3.9005 C.ar    1  UNL1        0.2626
     19 C          19.2952   70.4605   -4.2706 C.ar    1  UNL1        0.0795
     20 C          19.4536   70.8863   -5.5419 C.ar    1  UNL1        0.0869
     21 O          16.4075   69.9694   -6.9017 O.2     1  UNL1       -0.2464
     22 O          17.9129   69.4443   -2.7587 O.2     1  UNL1       -0.2670
     23 H          16.2730   69.2526   -4.5759 H       1  UNL1        0.1734
     24 O          21.1367   74.2690   -5.6508 O.3     1  UNL1       -0.2703
     25 P          22.2769   73.7303   -4.6509 P.3     1  UNL1        0.2208
     26 O          23.1460   72.7698   -5.3658 O.2     1  UNL1       -0.5170
     27 O          23.1630   74.9702   -4.1299 O.3     1  UNL1       -0.4371
     28 O          21.5878   72.9991   -3.3936 O.3     1  UNL1       -0.2858
     29 C          22.5794   72.9124   -2.3694 C.3     1  UNL1        0.2704
     30 C          22.8022   71.4451   -1.9994 C.3     1  UNL1        0.1967
     31 C          21.4766   70.8447   -1.5211 C.3     1  UNL1        0.1715
     32 C          20.9182   71.7235   -0.3962 C.3     1  UNL1        0.1694
     33 C          20.8364   73.1704   -0.8889 C.3     1  UNL1        0.1761
     34 O          23.2687   70.7284   -3.1439 O.3     1  UNL1       -0.3775
     35 O          21.6979   69.5197   -1.0336 O.3     1  UNL1       -0.3794
     36 O          21.7794   71.6489    0.7408 O.3     1  UNL1       -0.3794
     37 O          22.1417   73.6394   -1.2238 O.3     1  UNL1       -0.3258
     38 H          24.0988   71.1441   -3.4141 H       1  UNL1        0.2106
     39 H          22.0590   69.0078   -1.7683 H       1  UNL1        0.2105
     40 H          21.8052   70.7220    1.0120 H       1  UNL1        0.2105
     41 C          20.2476   74.0510    0.2156 C.3     1  UNL1        0.1693
     42 O          19.0936   74.7303   -0.2823 O.3     1  UNL1       -0.3794
     43 H          18.7533   75.2723    0.4428 H       1  UNL1        0.2105
@<TRIPOS>BOND
     1    15    16   ar
     2    15    20   ar
     3    15     6    1
     4    16    17   ar
     5    16    21    2
     6    17    18   ar
     7    17    23    1
     8    18    19   ar
     9    18    22    2
    10    19    20   ar
    11     6     7    1
    12     6    11    1
    13     7     8    1
    14     7     9    1
    15     8    13    1
    16     9    10    1
    17     9    12    1
    18    10    11    1
    19    10     5    1
    20    12    14    1
    21     5     4    1
    22     4     1    1
    23     1     2    2
    24     1     3    1
    25     1    24    1
    26    24    25    1
    27    25    26    2
    28    25    27    1
    29    25    28    1
    30    28    29    1
    31    29    30    1
    32    29    37    1
    33    30    31    1
    34    30    34    1
    35    31    32    1
    36    31    35    1
    37    32    33    1
    38    32    36    1
    39    33    41    1
    40    33    37    1
    41    41    42    1
    42    34    38    1
    43    35    39    1
    44    36    40    1
    45    42    43    1
@<TRIPOS>MOLECULE
GDU
 43 45 0 0 0
SMALL
GASTEIGER

@<TRIPOS>ATOM
      1 P          22.9147   72.3385   -3.2351 P.3     1  UNL1        0.2189
      2 O          23.0609   72.9156   -1.8804 O.2     1  UNL1       -0.5170
      3 O          23.2022   70.7551   -3.1777 O.3     1  UNL1       -0.4371
      4 O          21.4191   72.5933   -3.7689 O.3     1  UNL1       -0.3112
      5 C          20.5326   72.1948   -2.7220 C.3     1  UNL1        0.1811
      6 C          18.1519   71.2873   -5.2589 C.3     1  UNL1        0.2383
      7 C          18.3165   70.0052   -4.4034 C.3     1  UNL1        0.1895
      8 O          17.1074   69.2429   -4.3891 O.3     1  UNL1       -0.3779
      9 C          18.6191   70.5887   -2.9986 C.3     1  UNL1        0.1713
     10 C          19.1221   72.0155   -3.2864 C.3     1  UNL1        0.1764
     11 O          19.1421   72.1853   -4.7143 O.3     1  UNL1       -0.3308
     12 O          17.4316   70.6203   -2.2044 O.3     1  UNL1       -0.3794
     13 H          17.2762   68.4626   -3.8428 H       1  UNL1        0.2106
     14 H          17.1337   69.7055   -2.1094 H       1  UNL1        0.2105
     15 N          18.4287   71.0082   -6.6690 N.ar    1  UNL1       -0.2551
     16 C          17.4090   70.7927   -7.5188 C.ar    1  UNL1        0.3323
     17 N          17.6361   70.5375   -8.8208 N.ar    1  UNL1       -0.2743
     18 C          18.8962   70.4838   -9.2935 C.ar    1  UNL1        0.2626
     19 C          19.9804   70.7030   -8.4088 C.ar    1  UNL1        0.0795
     20 C          19.7243   70.9612   -7.1087 C.ar    1  UNL1        0.0869
     21 O          16.2669   70.8384   -7.1071 O.2     1  UNL1       -0.2464
     22 O          19.1029   70.2480  -10.4709 O.2     1  UNL1       -0.2670
     23 H          16.8880   70.3886   -9.4208 H       1  UNL1        0.1734
     24 O          23.9681   73.0380   -4.2318 O.3     1  UNL1       -0.2703
     25 P          24.0879   74.5775   -3.7786 P.3     1  UNL1        0.2208
     26 O          24.3148   75.4258   -4.9694 O.2     1  UNL1       -0.5170
     27 O          22.7246   75.0298   -3.0500 O.3     1  UNL1       -0.4371
     28 O          25.3210   74.7431   -2.7577 O.3     1  UNL1       -0.2858
     29 C          26.0652   75.8838   -3.1875 C.3     1  UNL1        0.2704
     30 C          27.4804   75.4519   -3.5749 C.3     1  UNL1        0.1967
     31 C          28.1499   74.7940   -2.3643 C.3     1  UNL1        0.1715
     32 C          28.0643   75.7562   -1.1741 C.3     1  UNL1        0.1694
     33 C          26.6034   76.1637   -0.9675 C.3     1  UNL1        0.1761
     34 O          27.4173   74.5185   -4.6547 O.3     1  UNL1       -0.3775
     35 O          29.5197   74.5182   -2.6642 O.3     1  UNL1       -0.3794
     36 O          28.8558   76.9152   -1.4387 O.3     1  UNL1       -0.3794
     37 O          26.1227   76.8378   -2.1296 O.3     1  UNL1       -0.3258
     38 H          26.9835   74.9719   -5.3903 H       1  UNL1        0.2106
     39 H          29.5253   73.9215   -3.4233 H       1  UNL1        0.2105
     40 H          29.7636   76.6108   -1.5674 H       1  UNL1        0.2105
     41 C          26.5022   77.0978    0.2405 C.3     1  UNL1        0.1693
     42 O          25.1961   77.6750    0.2871 O.3     1  UNL1       -0.3794
     43 H          25.1738   78.2547    1.0608 H       1  UNL1        0.2105
@<TRIPOS>BOND
     1    15    16   ar
     2    15    20   ar
     3    15     6    1
     4    16    17   ar
     5    16    21    2
     6    17    18   ar
     7    17    23    1
     8    18    19   ar
     9    18    22    2
    10    19    20   ar
    11     6     7    1
    12     6    11    1
    13     7     8    1
    14     7     9    1
    15     8    13    1
    16     9    10    1
    17     9    12    1
    18    10    11    1
    19    10     5    1
    20    12    14    1
    21     5     4    1
    22     4     1    1
    23     1     2    2
    24     1     3    1
    25     1    24    1
    26    24    25    1
    27    25    26    2
    28    25    27    1
    29    25    28    1
    30    28    29    1
    31    29    30    1
    32    29    37    1
    33    30    31    1
    34    30    34    1
    35    31    32    1
    36    31    35    1
    37    32    33    1
    38    32    36    1
    39    33    41    1
    40    33    37    1
    41    41    42    1
    42    34    38    1
    43    35    39    1
    44    36    40    1
    45    42    43    1
@<TRIPOS>MOLECULE
GDU
 43 45 0 0 0
SMALL
GASTEIGER

@<TRIPOS>ATOM
      1 P          22.8963   72.0520   -3.1680 P.3     1  UNL1        0.2189
      2 O          22.8675   72.5661   -1.7807 O.2     1  UNL1       -0.5170
      3 O          23.3418   70.5046   -3.1576 O.3     1  UNL1       -0.4371
      4 O          21.4321   72.1846   -3.8203 O.3     1  UNL1       -0.3112
      5 C          20.4898   71.9306   -2.7771 C.3     1  UNL1        0.1811
      6 C          18.0874   71.2365   -5.3605 C.3     1  UNL1        0.2383
      7 C          18.1356   69.9382   -4.5150 C.3     1  UNL1        0.1895
      8 O          16.8699   69.2742   -4.5275 O.3     1  UNL1       -0.3779
      9 C          18.4600   70.4838   -3.1000 C.3     1  UNL1        0.1713
     10 C          19.0792   71.8686   -3.3657 C.3     1  UNL1        0.1764
     11 O          19.1365   72.0483   -4.7914 O.3     1  UNL1       -0.3308
     12 O          17.2656   70.6030   -2.3246 O.3     1  UNL1       -0.3794
     13 H          16.9671   68.4783   -3.9863 H       1  UNL1        0.2106
     14 H          16.8946   69.7139   -2.2433 H       1  UNL1        0.2105
     15 N          18.3647   70.9482   -6.7686 N.ar    1  UNL1       -0.2551
     16 C          17.3456   70.7227   -7.6164 C.ar    1  UNL1        0.3323
     17 N          17.5731   70.4589   -8.9166 N.ar    1  UNL1       -0.2743
     18 C          18.8332   70.4066   -9.3895 C.ar    1  UNL1        0.2626
     19 C          19.9169   70.6364   -8.5068 C.ar    1  UNL1        0.0795
     20 C          19.6603   70.9030   -7.2085 C.ar    1  UNL1        0.0869
     21 O          16.2034   70.7670   -7.2046 O.2     1  UNL1       -0.2464
     22 O          19.0404   70.1632  -10.5652 O.2     1  UNL1       -0.2670
     23 H          16.8254   70.3029   -9.5152 H       1  UNL1        0.1734
     24 O          23.9505   72.9068   -4.0342 O.3     1  UNL1       -0.2703
     25 P          23.8328   74.4333   -3.5385 P.3     1  UNL1        0.2208
     26 O          24.4872   75.3232   -4.5229 O.2     1  UNL1       -0.5170
     27 O          22.2790   74.8349   -3.4027 O.3     1  UNL1       -0.4371
     28 O          24.5536   74.5914   -2.1083 O.3     1  UNL1       -0.2858
     29 C          24.2981   75.9230   -1.6598 C.3     1  UNL1        0.2704
     30 C          25.6256   76.6320   -1.3871 C.3     1  UNL1        0.1967
     31 C          26.4031   75.8445   -0.3281 C.3     1  UNL1        0.1715
     32 C          25.5032   75.6510    0.8976 C.3     1  UNL1        0.1694
     33 C          24.1847   75.0141    0.4515 C.3     1  UNL1        0.1761
     34 O          26.3892   76.6985   -2.5928 O.3     1  UNL1       -0.3775
     35 O          27.5765   76.5702    0.0446 O.3     1  UNL1       -0.3794
     36 O          25.2459   76.9173    1.5061 O.3     1  UNL1       -0.3794
     37 O          23.5186   75.8794   -0.4668 O.3     1  UNL1       -0.3258
     38 H          25.8597   77.1952   -3.2313 H       1  UNL1        0.2106
     39 H          28.1048   76.6784   -0.7563 H       1  UNL1        0.2105
     40 H          26.1020   77.2826    1.7650 H       1  UNL1        0.2105
     41 C          23.2919   74.7850    1.6731 C.3     1  UNL1        0.1693
     42 O          24.1071   74.4979    2.8107 O.3     1  UNL1       -0.3794
     43 H          23.5077   74.3611    3.5572 H       1  UNL1        0.2105
@<TRIPOS>BOND
     1    15    16   ar
     2    15    20   ar
     3    15     6    1
     4    16    17   ar
     5    16    21    2
     6    17    18   ar
     7    17    23    1
     8    18    19   ar
     9    18    22    2
    10    19    20   ar
    11     6     7    1
    12     6    11    1
    13     7     8    1
    14     7     9    1
    15     8    13    1
    16     9    10    1
    17     9    12    1
    18    10    11    1
    19    10     5    1
    20    12    14    1
    21     5     4    1
    22     4     1    1
    23     1     2    2
    24     1     3    1
    25     1    24    1
    26    24    25    1
    27    25    26    2
    28    25    27    1
    29    25    28    1
    30    28    29    1
    31    29    30    1
    32    29    37    1
    33    30    31    1
    34    30    34    1
    35    31    32    1
    36    31    35    1
    37    32    33    1
    38    32    36    1
    39    33    41    1
    40    33    37    1
    41    41    42    1
    42    34    38    1
    43    35    39    1
    44    36    40    1
    45    42    43    1
@<TRIPOS>MOLECULE
GDU
 43 45 0 0 0
SMALL
GASTEIGER

@<TRIPOS>ATOM
      1 P          22.8621   72.0266   -3.1729 P.3     1  UNL1        0.2189
      2 O          22.8186   72.4729   -1.7627 O.2     1  UNL1       -0.5170
      3 O          23.3219   70.4846   -3.2336 O.3     1  UNL1       -0.4371
      4 O          21.4015   72.1773   -3.8293 O.3     1  UNL1       -0.3112
      5 C          20.4533   71.9254   -2.7910 C.3     1  UNL1        0.1811
      6 C          18.0729   71.2151   -5.3904 C.3     1  UNL1        0.2383
      7 C          18.1253   69.9166   -4.5453 C.3     1  UNL1        0.1895
      8 O          16.8646   69.2433   -4.5664 O.3     1  UNL1       -0.3779
      9 C          18.4364   70.4638   -3.1278 C.3     1  UNL1        0.1713
     10 C          19.0470   71.8533   -3.3888 C.3     1  UNL1        0.1764
     11 O          19.1122   72.0343   -4.8140 O.3     1  UNL1       -0.3308
     12 O          17.2362   70.5736   -2.3602 O.3     1  UNL1       -0.3794
     13 H          16.9642   68.4478   -4.0250 H       1  UNL1        0.2106
     14 H          16.8712   69.6818   -2.2818 H       1  UNL1        0.2105
     15 N          18.3615   70.9297   -6.7968 N.ar    1  UNL1       -0.2551
     16 C          17.3487   70.7215   -7.6565 C.ar    1  UNL1        0.3323
     17 N          17.5867   70.4608   -8.9554 N.ar    1  UNL1       -0.2743
     18 C          18.8510   70.3941   -9.4150 C.ar    1  UNL1        0.2626
     19 C          19.9281   70.6055   -8.5198 C.ar    1  UNL1        0.0795
     20 C          19.6611   70.8695   -7.2230 C.ar    1  UNL1        0.0869
     21 O          16.2029   70.7789   -7.2566 O.2     1  UNL1       -0.2464
     22 O          19.0675   70.1535  -10.5896 O.2     1  UNL1       -0.2670
     23 H          16.8434   70.3174   -9.5627 H       1  UNL1        0.1734
     24 O          23.9146   72.9315   -3.9889 O.3     1  UNL1       -0.2703
     25 P          23.3671   74.4440   -3.9385 P.3     1  UNL1        0.2208
     26 O          22.4554   74.6766   -5.0804 O.2     1  UNL1       -0.5170
     27 O          22.5697   74.6802   -2.5592 O.3     1  UNL1       -0.4371
     28 O          24.6061   75.4676   -4.0227 O.3     1  UNL1       -0.2858
     29 C          25.6906   74.8654   -3.3147 C.3     1  UNL1        0.2704
     30 C          26.0947   75.7624   -2.1437 C.3     1  UNL1        0.1967
     31 C          26.4992   77.1371   -2.6850 C.3     1  UNL1        0.1715
     32 C          27.5748   76.9434   -3.7598 C.3     1  UNL1        0.1694
     33 C          27.0571   75.9576   -4.8101 C.3     1  UNL1        0.1761
     34 O          24.9916   75.9050   -1.2471 O.3     1  UNL1       -0.3775
     35 O          27.0185   77.9381   -1.6215 O.3     1  UNL1       -0.3794
     36 O          28.7635   76.4281   -3.1588 O.3     1  UNL1       -0.3794
     37 O          26.7965   74.6952   -4.1983 O.3     1  UNL1       -0.3258
     38 H          24.7670   75.0170   -0.9375 H       1  UNL1        0.2106
     39 H          26.3148   78.0231   -0.9658 H       1  UNL1        0.2105
     40 H          29.0492   77.0769   -2.5024 H       1  UNL1        0.2105
     41 C          28.1104   75.7833   -5.9065 C.3     1  UNL1        0.1693
     42 O          28.4460   74.4000   -6.0280 O.3     1  UNL1       -0.3794
     43 H          29.1101   74.3335   -6.7278 H       1  UNL1        0.2105
@<TRIPOS>BOND
     1    15    16   ar
     2    15    20   ar
     3    15     6    1
     4    16    17   ar
     5    16    21    2
     6    17    18   ar
     7    17    23    1
     8    18    19   ar
     9    18    22    2
    10    19    20   ar
    11     6     7    1
    12     6    11    1
    13     7     8    1
    14     7     9    1
    15     8    13    1
    16     9    10    1
    17     9    12    1
    18    10    11    1
    19    10     5    1
    20    12    14    1
    21     5     4    1
    22     4     1    1
    23     1     2    2
    24     1     3    1
    25     1    24    1
    26    24    25    1
    27    25    26    2
    28    25    27    1
    29    25    28    1
    30    28    29    1
    31    29    30    1
    32    29    37    1
    33    30    31    1
    34    30    34    1
    35    31    32    1
    36    31    35    1
    37    32    33    1
    38    32    36    1
    39    33    41    1
    40    33    37    1
    41    41    42    1
    42    34    38    1
    43    35    39    1
    44    36    40    1
    45    42    43    1
@<TRIPOS>MOLECULE
GDU
 43 45 0 0 0
SMALL
GASTEIGER

@<TRIPOS>ATOM
      1 P          22.7948   72.0764   -3.5084 P.3     1  UNL1        0.2189
      2 O          23.7969   72.8425   -4.2819 O.2     1  UNL1       -0.5170
      3 O          23.3850   70.6192   -3.1605 O.3     1  UNL1       -0.4371
      4 O          22.4572   72.8584   -2.1440 O.3     1  UNL1       -0.3112
      5 C          22.5950   71.9141   -1.0810 C.3     1  UNL1        0.1811
      6 C          22.2503   73.6523    2.0474 C.3     1  UNL1        0.2383
      7 C          21.8440   74.6959    0.9756 C.3     1  UNL1        0.1895
      8 O          20.8698   75.6052    1.4928 O.3     1  UNL1       -0.3779
      9 C          21.2317   73.8012   -0.1333 C.3     1  UNL1        0.1713
     10 C          21.8213   72.4058    0.1436 C.3     1  UNL1        0.1764
     11 O          22.7113   72.5294    1.2664 O.3     1  UNL1       -0.3308
     12 O          19.8068   73.7796   -0.0279 O.3     1  UNL1       -0.3794
     13 H          20.6612   76.2253    0.7802 H       1  UNL1        0.2106
     14 H          19.5030   74.6890   -0.1516 H       1  UNL1        0.2105
     15 N          23.3278   74.1701    2.8922 N.ar    1  UNL1       -0.2551
     16 C          23.3987   73.8013    4.1834 C.ar    1  UNL1        0.3323
     17 N          24.3813   74.2601    4.9807 N.ar    1  UNL1       -0.2743
     18 C          25.3088   75.1088    4.4972 C.ar    1  UNL1        0.2626
     19 C          25.2434   75.5106    3.1405 C.ar    1  UNL1        0.0795
     20 C          24.2498   75.0320    2.3619 C.ar    1  UNL1        0.0869
     21 O          22.5695   73.0359    4.6336 O.2     1  UNL1       -0.2464
     22 O          26.1959   75.5284    5.2194 O.2     1  UNL1       -0.2670
     23 H          24.4196   73.9801    5.9091 H       1  UNL1        0.1734
     24 O          21.4522   71.9155   -4.3825 O.3     1  UNL1       -0.2703
     25 P          21.5332   73.0024   -5.5666 P.3     1  UNL1        0.2208
     26 O          21.6874   74.3542   -4.9853 O.2     1  UNL1       -0.5170
     27 O          22.7984   72.6763   -6.5085 O.3     1  UNL1       -0.4371
     28 O          20.1845   72.9446   -6.4428 O.3     1  UNL1       -0.2858
     29 C          20.5645   73.1524   -7.8037 C.3     1  UNL1        0.2704
     30 C          19.8692   74.4042   -8.3411 C.3     1  UNL1        0.1967
     31 C          18.3528   74.2209   -8.2249 C.3     1  UNL1        0.1715
     32 C          17.9632   72.9101   -8.9175 C.3     1  UNL1        0.1694
     33 C          18.8024   71.7705   -8.3345 C.3     1  UNL1        0.1761
     34 O          20.2751   75.5419   -7.5782 O.3     1  UNL1       -0.3775
     35 O          17.6870   75.3167   -8.8562 O.3     1  UNL1       -0.3794
     36 O          18.2071   73.0202  -10.3205 O.3     1  UNL1       -0.3794
     37 O          20.1862   72.0177   -8.5795 O.3     1  UNL1       -0.3258
     38 H          21.2345   75.6144   -7.6743 H       1  UNL1        0.2106
     39 H          17.9700   76.1178   -8.3976 H       1  UNL1        0.2105
     40 H          17.6640   73.7514  -10.6425 H       1  UNL1        0.2105
     41 C          18.3969   70.4511   -8.9953 C.3     1  UNL1        0.1693
     42 O          18.8764   70.4260  -10.3408 O.3     1  UNL1       -0.3794
     43 H          18.6012   69.5802  -10.7204 H       1  UNL1        0.2105
@<TRIPOS>BOND
     1    15    16   ar
     2    15    20   ar
     3    15     6    1
     4    16    17   ar
     5    16    21    2
     6    17    18   ar
     7    17    23    1
     8    18    19   ar
     9    18    22    2
    10    19    20   ar
    11     6     7    1
    12     6    11    1
    13     7     8    1
    14     7     9    1
    15     8    13    1
    16     9    10    1
    17     9    12    1
    18    10    11    1
    19    10     5    1
    20    12    14    1
    21     5     4    1
    22     4     1    1
    23     1     2    2
    24     1     3    1
    25     1    24    1
    26    24    25    1
    27    25    26    2
    28    25    27    1
    29    25    28    1
    30    28    29    1
    31    29    30    1
    32    29    37    1
    33    30    31    1
    34    30    34    1
    35    31    32    1
    36    31    35    1
    37    32    33    1
    38    32    36    1
    39    33    41    1
    40    33    37    1
    41    41    42    1
    42    34    38    1
    43    35    39    1
    44    36    40    1
    45    42    43    1
@<TRIPOS>MOLECULE
GDU
 43 45 0 0 0
SMALL
GASTEIGER

@<TRIPOS>ATOM
      1 P          20.9584   70.7894   -1.9561 P.3     1  UNL1        0.2189
      2 O          21.4534   70.2748   -3.2521 O.2     1  UNL1       -0.5170
      3 O          20.9730   69.6034   -0.8670 O.3     1  UNL1       -0.4371
      4 O          21.9072   71.9883   -1.4566 O.3     1  UNL1       -0.3112
      5 C          22.4616   71.5827   -0.2041 C.3     1  UNL1        0.1811
      6 C          22.5522   73.9384    2.5106 C.3     1  UNL1        0.2383
      7 C          22.2127   74.7946    1.2637 C.3     1  UNL1        0.1895
      8 O          21.4000   75.9150    1.6204 O.3     1  UNL1       -0.3779
      9 C          21.4181   73.7915    0.3875 C.3     1  UNL1        0.1713
     10 C          21.8408   72.4107    0.9225 C.3     1  UNL1        0.1764
     11 O          22.8121   72.6297    1.9601 O.3     1  UNL1       -0.3308
     12 O          20.0124   73.9899    0.5509 O.3     1  UNL1       -0.3794
     13 H          21.2257   76.4042    0.8042 H       1  UNL1        0.2106
     14 H          19.8203   74.8899    0.2546 H       1  UNL1        0.2105
     15 N          23.7411   74.4585    3.1880 N.ar    1  UNL1       -0.2551
     16 C          23.9278   74.2059    4.4955 C.ar    1  UNL1        0.3323
     17 N          25.0142   74.6695    5.1411 N.ar    1  UNL1       -0.2743
     18 C          25.9317   75.4063    4.4858 C.ar    1  UNL1        0.2626
     19 C          25.7454   75.6851    3.1097 C.ar    1  UNL1        0.0795
     20 C          24.6491   75.2044    2.4856 C.ar    1  UNL1        0.0869
     21 O          23.1089   73.5423    5.0998 O.2     1  UNL1       -0.2464
     22 O          26.9130   75.8303    5.0705 O.2     1  UNL1       -0.2670
     23 H          25.1350   74.4739    6.0839 H       1  UNL1        0.1734
     24 O          19.4536   71.3333   -2.1352 O.3     1  UNL1       -0.2703
     25 P          18.6860   70.2799   -3.0792 P.3     1  UNL1        0.2208
     26 O          19.0239   68.9025   -2.6576 O.2     1  UNL1       -0.5170
     27 O          17.0962   70.5047   -2.9518 O.3     1  UNL1       -0.4371
     28 O          19.1370   70.5000   -4.6083 O.3     1  UNL1       -0.2858
     29 C          18.5910   71.7519   -5.0259 C.3     1  UNL1        0.2704
     30 C          17.7882   71.5534   -6.3125 C.3     1  UNL1        0.1967
     31 C          18.7105   70.9786   -7.3920 C.3     1  UNL1        0.1715
     32 C          19.9379   71.8874   -7.5227 C.3     1  UNL1        0.1694
     33 C          20.5792   72.0590   -6.1435 C.3     1  UNL1        0.1761
     34 O          16.7106   70.6473   -6.0693 O.3     1  UNL1       -0.3775
     35 O          18.0147   70.9251   -8.6392 O.3     1  UNL1       -0.3794
     36 O          19.5375   73.1609   -8.0306 O.3     1  UNL1       -0.3794
     37 O          19.6506   72.6780   -5.2544 O.3     1  UNL1       -0.3258
     38 H          16.1615   71.0454   -5.3802 H       1  UNL1        0.2106
     39 H          17.2470   70.3546   -8.5072 H       1  UNL1        0.2105
     40 H          19.1352   73.0037   -8.8947 H       1  UNL1        0.2105
     41 C          21.8261   72.9374   -6.2685 C.3     1  UNL1        0.1693
     42 O          22.5696   72.5461   -7.4240 O.3     1  UNL1       -0.3794
     43 H          23.3446   73.1229   -7.4667 H       1  UNL1        0.2105
@<TRIPOS>BOND
     1    15    16   ar
     2    15    20   ar
     3    15     6    1
     4    16    17   ar
     5    16    21    2
     6    17    18   ar
     7    17    23    1
     8    18    19   ar
     9    18    22    2
    10    19    20   ar
    11     6     7    1
    12     6    11    1
    13     7     8    1
    14     7     9    1
    15     8    13    1
    16     9    10    1
    17     9    12    1
    18    10    11    1
    19    10     5    1
    20    12    14    1
    21     5     4    1
    22     4     1    1
    23     1     2    2
    24     1     3    1
    25     1    24    1
    26    24    25    1
    27    25    26    2
    28    25    27    1
    29    25    28    1
    30    28    29    1
    31    29    30    1
    32    29    37    1
    33    30    31    1
    34    30    34    1
    35    31    32    1
    36    31    35    1
    37    32    33    1
    38    32    36    1
    39    33    41    1
    40    33    37    1
    41    41    42    1
    42    34    38    1
    43    35    39    1
    44    36    40    1
    45    42    43    1
@<TRIPOS>MOLECULE
GDU
 43 45 0 0 0
SMALL
GASTEIGER

@<TRIPOS>ATOM
      1 P          21.5675   71.2553   -3.3276 P.3     1  UNL1        0.2189
      2 O          23.0034   70.8978   -3.3275 O.2     1  UNL1       -0.5170
      3 O          20.8126   70.4437   -4.4957 O.3     1  UNL1       -0.4371
      4 O          20.9194   70.8757   -1.9054 O.3     1  UNL1       -0.3112
      5 C          21.0740   72.0183   -1.0621 C.3     1  UNL1        0.1811
      6 C          23.1334   72.1908    1.8801 C.3     1  UNL1        0.2383
      7 C          22.6983   70.7053    1.7962 C.3     1  UNL1        0.1895
      8 O          23.7019   69.8482    2.3452 O.3     1  UNL1       -0.3779
      9 C          22.5652   70.4917    0.2659 C.3     1  UNL1        0.1713
     10 C          22.3948   71.9149   -0.2972 C.3     1  UNL1        0.1764
     11 O          22.3850   72.8215    0.8191 O.3     1  UNL1       -0.3308
     12 O          23.7445   69.8774   -0.2572 O.3     1  UNL1       -0.3794
     13 H          23.3709   68.9430    2.2630 H       1  UNL1        0.2106
     14 H          23.8280   69.0172    0.1761 H       1  UNL1        0.2105
     15 N          22.7717   72.7639    3.1776 N.ar    1  UNL1       -0.2551
     16 C          21.5242   72.6031    3.6533 C.ar    1  UNL1        0.3323
     17 N          21.1670   73.1169    4.8450 N.ar    1  UNL1       -0.2743
     18 C          22.0560   73.8129    5.5795 C.ar    1  UNL1        0.2626
     19 C          23.3720   73.9953    5.0884 C.ar    1  UNL1        0.0795
     20 C          23.7050   73.4657    3.8921 C.ar    1  UNL1        0.0869
     21 O          20.7115   71.9772    3.0023 O.2     1  UNL1       -0.2464
     22 O          21.7321   74.2825    6.6561 O.2     1  UNL1       -0.2670
     23 H          20.2635   72.9875    5.1748 H       1  UNL1        0.1734
     24 O          21.4092   72.8366   -3.5862 O.3     1  UNL1       -0.2703
     25 P          21.3764   73.0476   -5.1813 P.3     1  UNL1        0.2208
     26 O          20.9956   74.4445   -5.4861 O.2     1  UNL1       -0.5170
     27 O          22.8353   72.7441   -5.7926 O.3     1  UNL1       -0.4371
     28 O          20.3025   72.0428   -5.8347 O.3     1  UNL1       -0.2858
     29 C          19.2143   72.8430   -6.2989 C.3     1  UNL1        0.2704
     30 C          17.8953   72.2387   -5.8148 C.3     1  UNL1        0.1967
     31 C          17.7784   70.8066   -6.3456 C.3     1  UNL1        0.1715
     32 C          17.9653   70.8310   -7.8668 C.3     1  UNL1        0.1694
     33 C          19.2811   71.5408   -8.1953 C.3     1  UNL1        0.1761
     34 O          17.8708   72.2249   -4.3864 O.3     1  UNL1       -0.3775
     35 O          16.4887   70.2800   -6.0263 O.3     1  UNL1       -0.3794
     36 O          16.8761   71.5299   -8.4709 O.3     1  UNL1       -0.3794
     37 O          19.2328   72.8867   -7.7238 O.3     1  UNL1       -0.3258
     38 H          17.9540   73.1437   -4.0970 H       1  UNL1        0.2106
     39 H          16.4109   70.2947   -5.0640 H       1  UNL1        0.2105
     40 H          16.0707   71.0522   -8.2332 H       1  UNL1        0.2105
     41 C          19.4943   71.5404   -9.7107 C.3     1  UNL1        0.1693
     42 O          18.7077   70.5044  -10.3013 O.3     1  UNL1       -0.3794
     43 H          18.8697   70.5386  -11.2541 H       1  UNL1        0.2105
@<TRIPOS>BOND
     1    15    16   ar
     2    15    20   ar
     3    15     6    1
     4    16    17   ar
     5    16    21    2
     6    17    18   ar
     7    17    23    1
     8    18    19   ar
     9    18    22    2
    10    19    20   ar
    11     6     7    1
    12     6    11    1
    13     7     8    1
    14     7     9    1
    15     8    13    1
    16     9    10    1
    17     9    12    1
    18    10    11    1
    19    10     5    1
    20    12    14    1
    21     5     4    1
    22     4     1    1
    23     1     2    2
    24     1     3    1
    25     1    24    1
    26    24    25    1
    27    25    26    2
    28    25    27    1
    29    25    28    1
    30    28    29    1
    31    29    30    1
    32    29    37    1
    33    30    31    1
    34    30    34    1
    35    31    32    1
    36    31    35    1
    37    32    33    1
    38    32    36    1
    39    33    41    1
    40    33    37    1
    41    41    42    1
    42    34    38    1
    43    35    39    1
    44    36    40    1
    45    42    43    1
@<TRIPOS>MOLECULE
GDU
 43 45 0 0 0
SMALL
GASTEIGER

@<TRIPOS>ATOM
      1 P          21.0068   70.2955   -1.4732 P.3     1  UNL1        0.2189
      2 O          19.9609   69.5028   -2.1568 O.2     1  UNL1       -0.5170
      3 O          22.3504   70.2897   -2.3606 O.3     1  UNL1       -0.4371
      4 O          20.4956   71.8087   -1.2834 O.3     1  UNL1       -0.3112
      5 C          19.5610   72.0644   -2.3329 C.3     1  UNL1        0.1811
      6 C          20.2485   73.1459   -5.6922 C.3     1  UNL1        0.2383
      7 C          19.0250   73.9909   -5.2541 C.3     1  UNL1        0.1895
      8 O          19.0335   75.2697   -5.8928 O.3     1  UNL1       -0.3779
      9 C          19.2585   74.1335   -3.7276 C.3     1  UNL1        0.1713
     10 C          20.2065   72.9697   -3.3837 C.3     1  UNL1        0.1764
     11 O          20.4342   72.2275   -4.5943 O.3     1  UNL1       -0.3308
     12 O          19.8703   75.3903   -3.4310 O.3     1  UNL1       -0.3794
     13 H          18.2503   75.7432   -5.5793 H       1  UNL1        0.2106
     14 H          19.2553   76.0770   -3.7223 H       1  UNL1        0.2105
     15 N          19.9596   72.4189   -6.9295 N.ar    1  UNL1       -0.2551
     16 C          20.9298   72.2485   -7.8449 C.ar    1  UNL1        0.3323
     17 N          20.6914   71.5809   -8.9892 N.ar    1  UNL1       -0.2743
     18 C          19.4672   71.0787   -9.2410 C.ar    1  UNL1        0.2626
     19 C          18.4340   71.2555   -8.2884 C.ar    1  UNL1        0.0795
     20 C          18.7014   71.9254   -7.1473 C.ar    1  UNL1        0.0869
     21 O          22.0392   72.6955   -7.6316 O.2     1  UNL1       -0.2464
     22 O          19.2492   70.4785  -10.2786 O.2     1  UNL1       -0.2670
     23 H          21.4045   71.4637   -9.6368 H       1  UNL1        0.1734
     24 O          21.3143   69.6469   -0.0320 O.3     1  UNL1       -0.2703
     25 P          22.2310   70.7004    0.7679 P.3     1  UNL1        0.2208
     26 O          23.2176   69.9688    1.5929 O.2     1  UNL1       -0.5170
     27 O          23.0054   71.6439   -0.2830 O.3     1  UNL1       -0.4371
     28 O          21.3025   71.6078    1.7189 O.3     1  UNL1       -0.2858
     29 C          22.1068   72.7011    2.1632 C.3     1  UNL1        0.2704
     30 C          21.8030   72.9920    3.6338 C.3     1  UNL1        0.1967
     31 C          20.3142   73.3214    3.7797 C.3     1  UNL1        0.1715
     32 C          19.9647   74.4521    2.8055 C.3     1  UNL1        0.1694
     33 C          20.4065   74.0492    1.3963 C.3     1  UNL1        0.1761
     34 O          22.1207   71.8449    4.4241 O.3     1  UNL1       -0.3775
     35 O          20.0438   73.7383    5.1197 O.3     1  UNL1       -0.3794
     36 O          20.6393   75.6478    3.1993 O.3     1  UNL1       -0.3794
     37 O          21.8195   73.8523    1.3727 O.3     1  UNL1       -0.3258
     38 H          23.0631   71.6704    4.2963 H       1  UNL1        0.2106
     39 H          20.2888   73.0035    5.6962 H       1  UNL1        0.2105
     40 H          20.3356   75.8595    4.0917 H       1  UNL1        0.2105
     41 C          20.0310   75.1572    0.4097 C.3     1  UNL1        0.1693
     42 O          20.8392   75.0436   -0.7629 O.3     1  UNL1       -0.3794
     43 H          20.5713   75.7576   -1.3576 H       1  UNL1        0.2105
@<TRIPOS>BOND
     1    15    16   ar
     2    15    20   ar
     3    15     6    1
     4    16    17   ar
     5    16    21    2
     6    17    18   ar
     7    17    23    1
     8    18    19   ar
     9    18    22    2
    10    19    20   ar
    11     6     7    1
    12     6    11    1
    13     7     8    1
    14     7     9    1
    15     8    13    1
    16     9    10    1
    17     9    12    1
    18    10    11    1
    19    10     5    1
    20    12    14    1
    21     5     4    1
    22     4     1    1
    23     1     2    2
    24     1     3    1
    25     1    24    1
    26    24    25    1
    27    25    26    2
    28    25    27    1
    29    25    28    1
    30    28    29    1
    31    29    30    1
    32    29    37    1
    33    30    31    1
    34    30    34    1
    35    31    32    1
    36    31    35    1
    37    32    33    1
    38    32    36    1
    39    33    41    1
    40    33    37    1
    41    41    42    1
    42    34    38    1
    43    35    39    1
    44    36    40    1
    45    42    43    1
@<TRIPOS>MOLECULE
GDU
 43 45 0 0 0
SMALL
GASTEIGER

@<TRIPOS>ATOM
      1 P          22.6206   72.1039   -3.5927 P.3     1  UNL1        0.2189
      2 O          21.3754   71.7437   -4.3065 O.2     1  UNL1       -0.5170
      3 O          23.4543   70.7670   -3.2601 O.3     1  UNL1       -0.4371
      4 O          23.5089   73.0738   -4.5184 O.3     1  UNL1       -0.3112
      5 C          22.6259   74.0650   -5.0461 C.3     1  UNL1        0.1811
      6 C          20.8650   73.9647   -8.1793 C.3     1  UNL1        0.2383
      7 C          21.3440   75.4332   -8.0490 C.3     1  UNL1        0.1895
      8 O          21.5933   76.0043   -9.3354 O.3     1  UNL1       -0.3779
      9 C          22.6631   75.2749   -7.2489 C.3     1  UNL1        0.1713
     10 C          22.5229   73.9029   -6.5638 C.3     1  UNL1        0.1764
     11 O          21.2304   73.3775   -6.9123 O.3     1  UNL1       -0.3308
     12 O          23.7871   75.2885   -8.1312 O.3     1  UNL1       -0.3794
     13 H          21.8863   76.9138   -9.1847 H       1  UNL1        0.2106
     14 H          23.7863   76.1486   -8.5726 H       1  UNL1        0.2105
     15 N          19.4154   73.9081   -8.3750 N.ar    1  UNL1       -0.2551
     16 C          18.8888   72.9804   -9.1938 C.ar    1  UNL1        0.3323
     17 N          17.5590   72.9047   -9.3884 N.ar    1  UNL1       -0.2743
     18 C          16.7310   73.7684   -8.7700 C.ar    1  UNL1        0.2626
     19 C          17.2721   74.7546   -7.9092 C.ar    1  UNL1        0.0795
     20 C          18.6089   74.8057   -7.7285 C.ar    1  UNL1        0.0869
     21 O          19.6231   72.1941   -9.7582 O.2     1  UNL1       -0.2464
     22 O          15.5276   73.7037   -8.9492 O.2     1  UNL1       -0.2670
     23 H          17.1959   72.2260   -9.9794 H       1  UNL1        0.1734
     24 O          22.2515   72.8600   -2.2199 O.3     1  UNL1       -0.2703
     25 P          20.6467   72.9659   -2.1624 P.3     1  UNL1        0.2208
     26 O          20.1808   72.6536   -0.7933 O.2     1  UNL1       -0.5170
     27 O          20.1934   74.4606   -2.5552 O.3     1  UNL1       -0.4371
     28 O          20.0012   71.9202   -3.2015 O.3     1  UNL1       -0.2858
     29 C          18.8253   71.3944   -2.5846 C.3     1  UNL1        0.2704
     30 C          18.9562   69.8764   -2.4501 C.3     1  UNL1        0.1967
     31 C          19.1552   69.2679   -3.8417 C.3     1  UNL1        0.1715
     32 C          18.0191   69.7464   -4.7527 C.3     1  UNL1        0.1694
     33 C          17.9606   71.2755   -4.7141 C.3     1  UNL1        0.1761
     34 O          20.0797   69.5642   -1.6244 O.3     1  UNL1       -0.3775
     35 O          19.1320   67.8419   -3.7498 O.3     1  UNL1       -0.3794
     36 O          16.7794   69.2042   -4.2955 O.3     1  UNL1       -0.3794
     37 O          17.6884   71.7133   -3.3836 O.3     1  UNL1       -0.3258
     38 H          19.9150   69.9721   -0.7634 H       1  UNL1        0.2106
     39 H          19.8529   67.5876   -3.1600 H       1  UNL1        0.2105
     40 H          16.8642   68.2426   -4.3314 H       1  UNL1        0.2105
     41 C          16.8512   71.7654   -5.6475 C.3     1  UNL1        0.1693
     42 O          15.6755   72.0419   -4.8845 O.3     1  UNL1       -0.3794
     43 H          15.0026   72.3478   -5.5081 H       1  UNL1        0.2105
@<TRIPOS>BOND
     1    15    16   ar
     2    15    20   ar
     3    15     6    1
     4    16    17   ar
     5    16    21    2
     6    17    18   ar
     7    17    23    1
     8    18    19   ar
     9    18    22    2
    10    19    20   ar
    11     6     7    1
    12     6    11    1
    13     7     8    1
    14     7     9    1
    15     8    13    1
    16     9    10    1
    17     9    12    1
    18    10    11    1
    19    10     5    1
    20    12    14    1
    21     5     4    1
    22     4     1    1
    23     1     2    2
    24     1     3    1
    25     1    24    1
    26    24    25    1
    27    25    26    2
    28    25    27    1
    29    25    28    1
    30    28    29    1
    31    29    30    1
    32    29    37    1
    33    30    31    1
    34    30    34    1
    35    31    32    1
    36    31    35    1
    37    32    33    1
    38    32    36    1
    39    33    41    1
    40    33    37    1
    41    41    42    1
    42    34    38    1
    43    35    39    1
    44    36    40    1
    45    42    43    1
@<TRIPOS>MOLECULE
GDU
 43 45 0 0 0
SMALL
GASTEIGER

@<TRIPOS>ATOM
      1 P          23.3049   74.9885   -9.0075 P.3     1  UNL1        0.2189
      2 O          23.0932   76.2979   -9.6633 O.2     1  UNL1       -0.5170
      3 O          23.3517   75.1895   -7.4105 O.3     1  UNL1       -0.4371
      4 O          22.0982   73.9958   -9.3883 O.3     1  UNL1       -0.3112
      5 C          21.7577   73.2827   -8.1983 C.3     1  UNL1        0.1811
      6 C          18.8747   71.4613   -7.0590 C.3     1  UNL1        0.2383
      7 C          18.4881   72.9520   -6.8821 C.3     1  UNL1        0.1895
      8 O          17.0803   73.1366   -7.0472 O.3     1  UNL1       -0.3779
      9 C          19.2738   73.6303   -8.0345 C.3     1  UNL1        0.1713
     10 C          20.3886   72.6226   -8.3712 C.3     1  UNL1        0.1764
     11 O          20.2603   71.5179   -7.4595 O.3     1  UNL1       -0.3308
     12 O          18.4229   73.8409   -9.1630 O.3     1  UNL1       -0.3794
     13 H          16.9066   74.0804   -6.9252 H       1  UNL1        0.2106
     14 H          17.7142   74.4311   -8.8732 H       1  UNL1        0.2105
     15 N          18.7322   70.7358   -5.7956 N.ar    1  UNL1       -0.2551
     16 C          17.5705   70.1239   -5.5053 C.ar    1  UNL1        0.3323
     17 N          17.4146   69.4473   -4.3521 N.ar    1  UNL1       -0.2743
     18 C          18.4226   69.3806   -3.4613 C.ar    1  UNL1        0.2626
     19 C          19.6501   70.0252   -3.7510 C.ar    1  UNL1        0.0795
     20 C          19.7811   70.6933   -4.9168 C.ar    1  UNL1        0.0869
     21 O          16.6524   70.1750   -6.2993 O.2     1  UNL1       -0.2464
     22 O          18.2808   68.7724   -2.4151 O.2     1  UNL1       -0.2670
     23 H          16.5707   69.0080   -4.1609 H       1  UNL1        0.1734
     24 O          24.6990   74.3576   -9.5086 O.3     1  UNL1       -0.2703
     25 P          25.8200   75.4976   -9.3245 P.3     1  UNL1        0.2208
     26 O          26.1090   76.1209  -10.6349 O.2     1  UNL1       -0.5170
     27 O          25.2804   76.6207   -8.3040 O.3     1  UNL1       -0.4371
     28 O          27.1646   74.8392   -8.7341 O.3     1  UNL1       -0.2858
     29 C          28.0975   75.9032   -8.5413 C.3     1  UNL1        0.2704
     30 C          29.3996   75.5779   -9.2749 C.3     1  UNL1        0.1967
     31 C          29.9619   74.2605   -8.7321 C.3     1  UNL1        0.1715
     32 C          30.0818   74.3698   -7.2079 C.3     1  UNL1        0.1694
     33 C          28.7264   74.7852   -6.6305 C.3     1  UNL1        0.1761
     34 O          29.1413   75.4494  -10.6742 O.3     1  UNL1       -0.3775
     35 O          31.2501   74.0176   -9.3013 O.3     1  UNL1       -0.3794
     36 O          31.0682   75.3477   -6.8752 O.3     1  UNL1       -0.3794
     37 O          28.3536   76.0617   -7.1477 O.3     1  UNL1       -0.3258
     38 H          28.7829   76.2971  -10.9707 H       1  UNL1        0.2106
     39 H          31.1287   73.9684  -10.2579 H       1  UNL1        0.2105
     40 H          31.9010   75.0484   -7.2629 H       1  UNL1        0.2105
     41 C          28.8262   74.8640   -5.1054 C.3     1  UNL1        0.1693
     42 O          29.7204   73.8542   -4.6346 O.3     1  UNL1       -0.3794
     43 H          29.7557   73.9383   -3.6718 H       1  UNL1        0.2105
@<TRIPOS>BOND
     1    15    16   ar
     2    15    20   ar
     3    15     6    1
     4    16    17   ar
     5    16    21    2
     6    17    18   ar
     7    17    23    1
     8    18    19   ar
     9    18    22    2
    10    19    20   ar
    11     6     7    1
    12     6    11    1
    13     7     8    1
    14     7     9    1
    15     8    13    1
    16     9    10    1
    17     9    12    1
    18    10    11    1
    19    10     5    1
    20    12    14    1
    21     5     4    1
    22     4     1    1
    23     1     2    2
    24     1     3    1
    25     1    24    1
    26    24    25    1
    27    25    26    2
    28    25    27    1
    29    25    28    1
    30    28    29    1
    31    29    30    1
    32    29    37    1
    33    30    31    1
    34    30    34    1
    35    31    32    1
    36    31    35    1
    37    32    33    1
    38    32    36    1
    39    33    41    1
    40    33    37    1
    41    41    42    1
    42    34    38    1
    43    35    39    1
    44    36    40    1
    45    42    43    1
@<TRIPOS>MOLECULE
GDU
 43 45 0 0 0
SMALL
GASTEIGER

@<TRIPOS>ATOM
      1 P          22.2298   70.8999   -2.1976 P.3     1  UNL1        0.2189
      2 O          21.6468   69.6011   -1.7944 O.2     1  UNL1       -0.5170
      3 O          23.3639   70.6556   -3.3143 O.3     1  UNL1       -0.4371
      4 O          21.0753   71.8422   -2.8026 O.3     1  UNL1       -0.3112
      5 C          20.6040   71.2072   -3.9922 C.3     1  UNL1        0.1811
      6 C          17.4557   71.9064   -5.5818 C.3     1  UNL1        0.2383
      7 C          17.6992   70.3987   -5.8472 C.3     1  UNL1        0.1895
      8 O          16.4612   69.6892   -5.9306 O.3     1  UNL1       -0.3779
      9 C          18.4976   69.9720   -4.5879 C.3     1  UNL1        0.1713
     10 C          19.0776   71.2922   -4.0473 C.3     1  UNL1        0.1764
     11 O          18.6789   72.3390   -4.9492 O.3     1  UNL1       -0.3308
     12 O          17.6293   69.3685   -3.6268 O.3     1  UNL1       -0.3794
     13 H          16.6818   68.7620   -6.0963 H       1  UNL1        0.2106
     14 H          17.2530   68.5818   -4.0442 H       1  UNL1        0.2105
     15 N          17.2427   72.6259   -6.8387 N.ar    1  UNL1       -0.2551
     16 C          18.2600   72.7672   -7.7068 C.ar    1  UNL1        0.3323
     17 N          18.0898   73.4211   -8.8710 N.ar    1  UNL1       -0.2743
     18 C          16.8933   73.9558   -9.1820 C.ar    1  UNL1        0.2626
     19 C          15.8142   73.8197   -8.2746 C.ar    1  UNL1        0.0795
     20 C          16.0111   73.1554   -7.1160 C.ar    1  UNL1        0.0869
     21 O          19.3450   72.2899   -7.4403 O.2     1  UNL1       -0.2464
     22 O          16.7395   74.5520  -10.2334 O.2     1  UNL1       -0.2670
     23 H          18.8338   73.5099   -9.4876 H       1  UNL1        0.1734
     24 O          22.8883   71.6133   -0.9131 O.3     1  UNL1       -0.2703
     25 P          21.8544   71.4260    0.3059 P.3     1  UNL1        0.2208
     26 O          20.5479   72.0156   -0.0607 O.2     1  UNL1       -0.5170
     27 O          21.6667   69.8562    0.6137 O.3     1  UNL1       -0.4371
     28 O          22.4284   72.1635    1.6161 O.3     1  UNL1       -0.2858
     29 C          21.6118   73.3144    1.8357 C.3     1  UNL1        0.2704
     30 C          22.3269   74.5558    1.3001 C.3     1  UNL1        0.1967
     31 C          23.6732   74.7034    2.0157 C.3     1  UNL1        0.1715
     32 C          23.4275   74.6940    3.5287 C.3     1  UNL1        0.1694
     33 C          22.6300   73.4401    3.8958 C.3     1  UNL1        0.1761
     34 O          22.5430   74.4148   -0.1051 O.3     1  UNL1       -0.3775
     35 O          24.2872   75.9362    1.6342 O.3     1  UNL1       -0.3794
     36 O          22.6914   75.8602    3.9005 O.3     1  UNL1       -0.3794
     37 O          21.3669   73.4617    3.2325 O.3     1  UNL1       -0.3258
     38 H          21.6717   74.3179   -0.5130 H       1  UNL1        0.2106
     39 H          24.4113   75.9027    0.6772 H       1  UNL1        0.2105
     40 H          23.2275   76.6225    3.6460 H       1  UNL1        0.2105
     41 C          22.4087   73.4035    5.4096 C.3     1  UNL1        0.1693
     42 O          21.0373   73.1110    5.6827 O.3     1  UNL1       -0.3794
     43 H          20.9405   73.0964    6.6448 H       1  UNL1        0.2105
@<TRIPOS>BOND
     1    15    16   ar
     2    15    20   ar
     3    15     6    1
     4    16    17   ar
     5    16    21    2
     6    17    18   ar
     7    17    23    1
     8    18    19   ar
     9    18    22    2
    10    19    20   ar
    11     6     7    1
    12     6    11    1
    13     7     8    1
    14     7     9    1
    15     8    13    1
    16     9    10    1
    17     9    12    1
    18    10    11    1
    19    10     5    1
    20    12    14    1
    21     5     4    1
    22     4     1    1
    23     1     2    2
    24     1     3    1
    25     1    24    1
    26    24    25    1
    27    25    26    2
    28    25    27    1
    29    25    28    1
    30    28    29    1
    31    29    30    1
    32    29    37    1
    33    30    31    1
    34    30    34    1
    35    31    32    1
    36    31    35    1
    37    32    33    1
    38    32    36    1
    39    33    41    1
    40    33    37    1
    41    41    42    1
    42    34    38    1
    43    35    39    1
    44    36    40    1
    45    42    43    1
@<TRIPOS>MOLECULE
GDU
 43 45 0 0 0
SMALL
GASTEIGER

@<TRIPOS>ATOM
      1 P          22.5938   71.5753   -3.1017 P.3     1  UNL1        0.2189
      2 O          22.7273   70.1232   -3.3530 O.2     1  UNL1       -0.5170
      3 O          23.5597   72.3843   -4.1045 O.3     1  UNL1       -0.4371
      4 O          21.0690   72.0247   -3.3461 O.3     1  UNL1       -0.3112
      5 C          20.5235   71.1278   -4.3148 C.3     1  UNL1        0.1811
      6 C          17.3825   71.9795   -5.8434 C.3     1  UNL1        0.2383
      7 C          17.5640   70.4693   -6.1425 C.3     1  UNL1        0.1895
      8 O          16.2984   69.8095   -6.2217 O.3     1  UNL1       -0.3779
      9 C          18.3628   69.9865   -4.9039 C.3     1  UNL1        0.1713
     10 C          19.0008   71.2722   -4.3457 C.3     1  UNL1        0.1764
     11 O          18.6302   72.3518   -5.2204 O.3     1  UNL1       -0.3308
     12 O          17.4855   69.3971   -3.9423 O.3     1  UNL1       -0.3794
     13 H          16.4808   68.8782   -6.4092 H       1  UNL1        0.2106
     14 H          17.0733   68.6342   -4.3698 H       1  UNL1        0.2105
     15 N          17.1799   72.7322   -7.0824 N.ar    1  UNL1       -0.2551
     16 C          17.8044   72.3439   -8.2083 C.ar    1  UNL1        0.3323
     17 N          17.6324   73.0164   -9.3615 N.ar    1  UNL1       -0.2743
     18 C          16.8350   74.1011   -9.4037 C.ar    1  UNL1        0.2626
     19 C          16.1752   74.5251   -8.2242 C.ar    1  UNL1        0.0795
     20 C          16.3620   73.8300   -7.0821 C.ar    1  UNL1        0.0869
     21 O          18.5265   71.3671   -8.1858 O.2     1  UNL1       -0.2464
     22 O          16.6824   74.7133  -10.4461 O.2     1  UNL1       -0.2670
     23 H          18.0876   72.7196  -10.1656 H       1  UNL1        0.1734
     24 O          23.0121   71.8963   -1.5804 O.3     1  UNL1       -0.2703
     25 P          22.1917   70.8750   -0.6455 P.3     1  UNL1        0.2208
     26 O          21.2226   70.1210   -1.4709 O.2     1  UNL1       -0.5170
     27 O          23.2157   69.8465    0.0529 O.3     1  UNL1       -0.4371
     28 O          21.4038   71.6999    0.4898 O.3     1  UNL1       -0.2858
     29 C          22.3095   72.6834    0.9920 C.3     1  UNL1        0.2704
     30 C          22.4651   72.5078    2.5033 C.3     1  UNL1        0.1967
     31 C          21.0913   72.6492    3.1658 C.3     1  UNL1        0.1715
     32 C          20.4688   73.9786    2.7243 C.3     1  UNL1        0.1694
     33 C          20.4628   74.0418    1.1949 C.3     1  UNL1        0.1761
     34 O          23.0016   71.2133    2.7820 O.3     1  UNL1       -0.3775
     35 O          21.2398   72.6345    4.5872 O.3     1  UNL1       -0.3794
     36 O          21.2360   75.0631    3.2491 O.3     1  UNL1       -0.3794
     37 O          21.8019   73.9846    0.7055 O.3     1  UNL1       -0.3258
     38 H          23.8607   71.1665    2.3408 H       1  UNL1        0.2106
     39 H          21.6443   71.7885    4.8175 H       1  UNL1        0.2105
     40 H          21.2168   74.9796    4.2114 H       1  UNL1        0.2105
     41 C          19.8118   75.3509    0.7428 C.3     1  UNL1        0.1693
     42 O          19.0293   75.1131   -0.4285 O.3     1  UNL1       -0.3794
     43 H          18.6367   75.9605   -0.6797 H       1  UNL1        0.2105
@<TRIPOS>BOND
     1    15    16   ar
     2    15    20   ar
     3    15     6    1
     4    16    17   ar
     5    16    21    2
     6    17    18   ar
     7    17    23    1
     8    18    19   ar
     9    18    22    2
    10    19    20   ar
    11     6     7    1
    12     6    11    1
    13     7     8    1
    14     7     9    1
    15     8    13    1
    16     9    10    1
    17     9    12    1
    18    10    11    1
    19    10     5    1
    20    12    14    1
    21     5     4    1
    22     4     1    1
    23     1     2    2
    24     1     3    1
    25     1    24    1
    26    24    25    1
    27    25    26    2
    28    25    27    1
    29    25    28    1
    30    28    29    1
    31    29    30    1
    32    29    37    1
    33    30    31    1
    34    30    34    1
    35    31    32    1
    36    31    35    1
    37    32    33    1
    38    32    36    1
    39    33    41    1
    40    33    37    1
    41    41    42    1
    42    34    38    1
    43    35    39    1
    44    36    40    1
    45    42    43    1
@<TRIPOS>MOLECULE
GDU
 43 45 0 0 0
SMALL
GASTEIGER

@<TRIPOS>ATOM
      1 P          19.5381   69.7327   -3.1510 P.3     1  UNL1        0.2189
      2 O          20.8414   69.0687   -2.9273 O.2     1  UNL1       -0.5170
      3 O          18.3648   68.8464   -2.4946 O.3     1  UNL1       -0.4371
      4 O          19.5541   71.1901   -2.4710 O.3     1  UNL1       -0.3112
      5 C          20.6266   71.1948   -1.5276 C.3     1  UNL1        0.1811
      6 C          21.6745   73.7580    0.7658 C.3     1  UNL1        0.2383
      7 C          22.9738   73.3370    0.0325 C.3     1  UNL1        0.1895
      8 O          23.8805   74.4372   -0.0704 O.3     1  UNL1       -0.3779
      9 C          22.4401   72.9276   -1.3649 C.3     1  UNL1        0.1713
     10 C          20.9474   72.6352   -1.1245 C.3     1  UNL1        0.1764
     11 O          20.6934   72.8177    0.2792 O.3     1  UNL1       -0.3308
     12 O          22.6033   73.9994   -2.2957 O.3     1  UNL1       -0.3794
     13 H          24.6643   74.1103   -0.5337 H       1  UNL1        0.2106
     14 H          23.5521   74.1740   -2.3583 H       1  UNL1        0.2105
     15 N          21.8342   73.6329    2.2155 N.ar    1  UNL1       -0.2551
     16 C          21.7368   72.4235    2.7953 C.ar    1  UNL1        0.3323
     17 N          21.8830   72.2807    4.1257 N.ar    1  UNL1       -0.2743
     18 C          22.1209   73.3548    4.9029 C.ar    1  UNL1        0.2626
     19 C          22.2203   74.6357    4.3067 C.ar    1  UNL1        0.0795
     20 C          22.0737   74.7502    2.9695 C.ar    1  UNL1        0.0869
     21 O          21.5230   71.4454    2.1071 O.2     1  UNL1       -0.2464
     22 O          22.2486   73.2271    6.1078 O.2     1  UNL1       -0.2670
     23 H          21.8138   71.3997    4.5268 H       1  UNL1        0.1734
     24 O          19.2764   69.8800   -4.7329 O.3     1  UNL1       -0.2703
     25 P          17.7689   70.4153   -4.9087 P.3     1  UNL1        0.2208
     26 O          16.8505   69.2641   -5.0519 O.2     1  UNL1       -0.5170
     27 O          17.3511   71.2765   -3.6134 O.3     1  UNL1       -0.4371
     28 O          17.6772   71.3428   -6.2207 O.3     1  UNL1       -0.2858
     29 C          18.8735   72.1218   -6.2626 C.3     1  UNL1        0.2704
     30 C          18.5165   73.6072   -6.1891 C.3     1  UNL1        0.1967
     31 C          17.6007   73.9587   -7.3656 C.3     1  UNL1        0.1715
     32 C          18.2807   73.5148   -8.6656 C.3     1  UNL1        0.1694
     33 C          18.6540   72.0347   -8.5519 C.3     1  UNL1        0.1761
     34 O          17.8426   73.8772   -4.9586 O.3     1  UNL1       -0.3775
     35 O          17.3775   75.3701   -7.3953 O.3     1  UNL1       -0.3794
     36 O          19.4582   74.2945   -8.8793 O.3     1  UNL1       -0.3794
     37 O          19.5724   71.8513   -7.4754 O.3     1  UNL1       -0.3258
     38 H          18.4518   73.6351   -4.2479 H       1  UNL1        0.2106
     39 H          16.9610   75.6053   -6.5565 H       1  UNL1        0.2105
     40 H          19.1763   75.2166   -8.9387 H       1  UNL1        0.2105
     41 C          19.3030   71.5723   -9.8583 C.3     1  UNL1        0.1693
     42 O          18.6744   70.3685  -10.3016 O.3     1  UNL1       -0.3794
     43 H          19.1109   70.1117  -11.1255 H       1  UNL1        0.2105
@<TRIPOS>BOND
     1    15    16   ar
     2    15    20   ar
     3    15     6    1
     4    16    17   ar
     5    16    21    2
     6    17    18   ar
     7    17    23    1
     8    18    19   ar
     9    18    22    2
    10    19    20   ar
    11     6     7    1
    12     6    11    1
    13     7     8    1
    14     7     9    1
    15     8    13    1
    16     9    10    1
    17     9    12    1
    18    10    11    1
    19    10     5    1
    20    12    14    1
    21     5     4    1
    22     4     1    1
    23     1     2    2
    24     1     3    1
    25     1    24    1
    26    24    25    1
    27    25    26    2
    28    25    27    1
    29    25    28    1
    30    28    29    1
    31    29    30    1
    32    29    37    1
    33    30    31    1
    34    30    34    1
    35    31    32    1
    36    31    35    1
    37    32    33    1
    38    32    36    1
    39    33    41    1
    40    33    37    1
    41    41    42    1
    42    34    38    1
    43    35    39    1
    44    36    40    1
    45    42    43    1
