@<TRIPOS>MOLECULE
UDP-glaA
 43 45 0 0 0
SMALL
GASTEIGER

@<TRIPOS>ATOM
      1 P          22.4819   71.5834   -2.9894 P.3     1  UNL1        0.2189
      2 O          22.2185   73.1656   -2.7786 O.3     1  UNL1       -0.4371
      3 O          23.9010   71.2151   -3.3100 O.2     1  UNL1       -0.5170
      4 O          21.3774   71.1473   -4.0873 O.3     1  UNL1       -0.3112
      5 C          20.4967   70.0812   -3.7758 C.3     1  UNL1        0.1811
      6 O          18.7315   71.3572   -4.7909 O.3     1  UNL1       -0.3308
      7 O          16.9191   70.1295   -2.7416 O.3     1  UNL1       -0.3794
      8 O          16.3909   68.6468   -4.9683 O.3     1  UNL1       -0.3779
      9 C          18.0338   69.5535   -3.4225 C.3     1  UNL1        0.1713
     10 C          17.6678   69.2409   -4.8580 C.3     1  UNL1        0.1895
     11 C          19.0914   70.6363   -3.5917 C.3     1  UNL1        0.1764
     12 C          17.7312   70.6134   -5.5062 C.3     1  UNL1        0.2383
     13 H          17.2116   70.3484   -1.8404 H       1  UNL1        0.2105
     14 H          16.4009   67.8310   -4.4385 H       1  UNL1        0.2106
     15 O          15.9072   70.2089   -7.6239 O.2     1  UNL1       -0.2464
     16 O          19.2566   70.3813  -10.7846 O.2     1  UNL1       -0.2670
     17 N          18.0990   70.5489   -6.8918 N.ar    1  UNL1       -0.2551
     18 N          17.5763   70.2945   -9.1964 N.ar    1  UNL1       -0.2743
     19 C          17.1059   70.3412   -7.8774 C.ar    1  UNL1        0.3323
     20 C          19.4316   70.6905   -7.2626 C.ar    1  UNL1        0.0869
     21 C          19.8641   70.6441   -8.5246 C.ar    1  UNL1        0.0795
     22 C          18.8912   70.4297   -9.6141 C.ar    1  UNL1        0.2626
     23 H          16.8800   70.1455   -9.9217 H       1  UNL1        0.1734
     24 O          21.9104   70.9356   -1.6223 O.3     1  UNL1       -0.2703
     25 P          21.1756   71.6153   -0.3532 P.3     1  UNL1        0.2208
     26 O          21.0804   70.4032    0.7134 O.3     1  UNL1       -0.4371
     27 O          19.8589   72.2611   -0.6770 O.2     1  UNL1       -0.5170
     28 O          22.2761   72.6195    0.2669 O.3     1  UNL1       -0.2858
     29 O          23.3319   71.8562    2.2422 O.3     1  UNL1       -0.3226
     30 O          24.5622   75.8232    2.0743 O.3     1  UNL1       -0.3794
     31 O          21.8190   75.0931    1.4049 O.3     1  UNL1       -0.3775
     32 O          25.1706   73.5977    3.5931 O.3     1  UNL1       -0.3792
     33 C          24.1764   74.5356    1.6014 C.3     1  UNL1        0.1718
     34 C          22.7429   74.2137    2.0372 C.3     1  UNL1        0.1968
     35 C          25.1428   73.4908    2.1659 C.3     1  UNL1        0.1723
     36 C          22.3795   72.7664    1.6824 C.3     1  UNL1        0.2706
     37 C          24.6636   72.0910    1.7873 C.3     1  UNL1        0.1830
     38 H          25.4744   75.9834    1.7780 H       1  UNL1        0.2105
     39 H          20.9275   74.8457    1.7029 H       1  UNL1        0.2106
     40 H          24.3423   73.2313    3.9465 H       1  UNL1        0.2106
     41 O          26.7676   71.4823    2.6278 O.co2   1  UNL1       -0.5466
     42 O          25.1152   69.9153    2.7318 O.co2   1  UNL1       -0.5466
     43 C          25.5054   71.0329    2.4267 C.2     1  UNL1        0.0799
@<TRIPOS>UNITY_ATOM_ATTR
41 1
charge -1
@<TRIPOS>BOND
     1     1     4    1
     2     1    24    1
     3     1     2    1
     4     1     3    2
     5    25    28    1
     6    25    24    1
     7    25    26    1
     8    25    27    2
     9     6    11    1
    10     6    12    1
    11    29    36    1
    12    29    37    1
    13     7     9    1
    14     7    13    1
    15     8    10    1
    16     8    14    1
    17     4     5    1
    18    28    36    1
    19    30    33    1
    20    30    38    1
    21    31    34    1
    22    31    39    1
    23    32    35    1
    24    32    40    1
    25    41    43   ar
    26    15    19    2
    27    42    43   ar
    28    16    22    2
    29    17    12    1
    30    17    19   ar
    31    17    20   ar
    32    18    19   ar
    33    18    22   ar
    34    18    23    1
    35     9    10    1
    36     9    11    1
    37    10    12    1
    38    11     5    1
    39    33    34    1
    40    33    35    1
    41    34    36    1
    42    35    37    1
    43    37    43    1
    44    20    21   ar
    45    21    22   ar
@<TRIPOS>MOLECULE
UDP-glaA
 43 45 0 0 0
SMALL
GASTEIGER

@<TRIPOS>ATOM
      1 P          20.4353   71.2404   -1.3432 P.3     1  UNL1        0.2189
      2 O          20.3669   70.7615    0.2006 O.3     1  UNL1       -0.4371
      3 O          20.1051   72.6863   -1.5726 O.2     1  UNL1       -0.5170
      4 O          19.5030   70.1741   -2.1237 O.3     1  UNL1       -0.3112
      5 C          19.2077   70.4054   -3.4907 C.3     1  UNL1        0.1811
      6 O          17.5338   71.4105   -4.8915 O.3     1  UNL1       -0.3308
      7 O          15.5268   69.8835   -3.2693 O.3     1  UNL1       -0.3794
      8 O          15.7363   68.3747   -5.5310 O.3     1  UNL1       -0.3779
      9 C          16.8390   69.4980   -3.6782 C.3     1  UNL1        0.1713
     10 C          16.8504   69.1568   -5.1533 C.3     1  UNL1        0.1895
     11 C          17.7280   70.7337   -3.6300 C.3     1  UNL1        0.1764
     12 C          16.8424   70.5334   -5.7959 C.3     1  UNL1        0.2383
     13 H          15.5765   70.1298   -2.3299 H       1  UNL1        0.2105
     14 H          15.7552   67.5615   -4.9976 H       1  UNL1        0.2106
     15 O          15.5247   70.5942   -8.2930 O.2     1  UNL1       -0.2464
     16 O          19.5123   70.5915  -10.6032 O.2     1  UNL1       -0.2670
     17 N          17.5113   70.5497   -7.0654 N.ar    1  UNL1       -0.2551
     18 N          17.5112   70.5923   -9.4417 N.ar    1  UNL1       -0.2743
     19 C          16.7565   70.5793   -8.2613 C.ar    1  UNL1        0.3323
     20 C          18.9007   70.5363   -7.1170 C.ar    1  UNL1        0.0869
     21 C          19.6057   70.5494   -8.2505 C.ar    1  UNL1        0.0795
     22 C          18.8937   70.5794   -9.5435 C.ar    1  UNL1        0.2626
     23 H          16.9896   70.6129  -10.3139 H       1  UNL1        0.1734
     24 O          21.9293   70.8117   -1.7897 O.3     1  UNL1       -0.2703
     25 P          23.1490   71.6868   -2.3891 P.3     1  UNL1        0.2208
     26 O          22.4038   72.7502   -3.3535 O.3     1  UNL1       -0.4371
     27 O          24.2144   70.8746   -3.0680 O.2     1  UNL1       -0.5170
     28 O          23.6739   72.5651   -1.1412 O.3     1  UNL1       -0.2858
     29 O          23.6761   71.6701    1.0493 O.3     1  UNL1       -0.3226
     30 O          23.9171   75.7556    1.7773 O.3     1  UNL1       -0.3794
     31 O          22.1651   74.7241   -0.3137 O.3     1  UNL1       -0.3775
     32 O          24.1068   73.4385    3.2688 O.3     1  UNL1       -0.3792
     33 C          24.1260   74.5158    1.1069 C.3     1  UNL1        0.1718
     34 C          22.7865   73.9096    0.6748 C.3     1  UNL1        0.1968
     35 C          24.8537   73.5574    2.0536 C.3     1  UNL1        0.1723
     36 C          22.9866   72.4987    0.1075 C.3     1  UNL1        0.2706
     37 C          24.9606   72.1786    1.4056 C.3     1  UNL1        0.1830
     38 H          24.7892   76.1008    2.0341 H       1  UNL1        0.2105
     39 H          21.3281   74.2968   -0.5622 H       1  UNL1        0.2106
     40 H          23.3188   72.8961    3.0952 H       1  UNL1        0.2106
     41 O          26.7056   71.6406    2.8785 O.co2   1  UNL1       -0.5466
     42 O          25.0597   70.0868    2.6072 O.co2   1  UNL1       -0.5466
     43 C          25.5494   71.1760    2.3464 C.2     1  UNL1        0.0799
@<TRIPOS>UNITY_ATOM_ATTR
41 1
charge -1
@<TRIPOS>BOND
     1     1     4    1
     2     1    24    1
     3     1     2    1
     4     1     3    2
     5    25    28    1
     6    25    24    1
     7    25    26    1
     8    25    27    2
     9     6    11    1
    10     6    12    1
    11    29    36    1
    12    29    37    1
    13     7     9    1
    14     7    13    1
    15     8    10    1
    16     8    14    1
    17     4     5    1
    18    28    36    1
    19    30    33    1
    20    30    38    1
    21    31    34    1
    22    31    39    1
    23    32    35    1
    24    32    40    1
    25    41    43   ar
    26    15    19    2
    27    42    43   ar
    28    16    22    2
    29    17    12    1
    30    17    19   ar
    31    17    20   ar
    32    18    19   ar
    33    18    22   ar
    34    18    23    1
    35     9    10    1
    36     9    11    1
    37    10    12    1
    38    11     5    1
    39    33    34    1
    40    33    35    1
    41    34    36    1
    42    35    37    1
    43    37    43    1
    44    20    21   ar
    45    21    22   ar
@<TRIPOS>MOLECULE
UDP-glaA
 43 45 0 0 0
SMALL
GASTEIGER

@<TRIPOS>ATOM
      1 P          21.9229   72.8504   -4.8782 P.3     1  UNL1        0.2189
      2 O          21.2963   74.3177   -5.1461 O.3     1  UNL1       -0.4371
      3 O          23.1487   72.5292   -5.6821 O.2     1  UNL1       -0.5170
      4 O          20.6690   71.8487   -5.0779 O.3     1  UNL1       -0.3112
      5 C          19.9311   71.4509   -3.9349 C.3     1  UNL1        0.1811
      6 O          18.2997   72.4230   -5.4074 O.3     1  UNL1       -0.3308
      7 O          16.2569   71.6409   -3.3564 O.3     1  UNL1       -0.3794
      8 O          15.9914   69.6846   -5.2373 O.3     1  UNL1       -0.3779
      9 C          17.4428   70.9549   -3.7572 C.3     1  UNL1        0.1713
     10 C          17.2476   70.3197   -5.1178 C.3     1  UNL1        0.1895
     11 C          18.5149   71.9981   -4.0434 C.3     1  UNL1        0.1764
     12 C          17.3892   71.5134   -6.0468 C.3     1  UNL1        0.2383
     13 H          16.4418   72.0633   -2.5002 H       1  UNL1        0.2105
     14 H          15.9376   69.0087   -4.5398 H       1  UNL1        0.2106
     15 O          15.8500   70.4472   -8.1610 O.2     1  UNL1       -0.2464
     16 O          19.5229   70.1508  -10.9287 O.2     1  UNL1       -0.2670
     17 N          17.9171   71.1493   -7.3306 N.ar    1  UNL1       -0.2551
     18 N          17.6801   70.2998   -9.5376 N.ar    1  UNL1       -0.2743
     19 C          17.0591   70.6214   -8.3235 C.ar    1  UNL1        0.3323
     20 C          19.2719   71.3162   -7.5956 C.ar    1  UNL1        0.0869
     21 C          19.8488   71.0052   -8.7585 C.ar    1  UNL1        0.0795
     22 C          19.0231   70.4475   -9.8479 C.ar    1  UNL1        0.2626
     23 H          17.0827   69.9181  -10.2660 H       1  UNL1        0.1734
     24 O          22.1457   72.8385   -3.2765 O.3     1  UNL1       -0.2703
     25 P          23.0451   71.8776   -2.3383 P.3     1  UNL1        0.2208
     26 O          24.2006   71.3548   -3.3421 O.3     1  UNL1       -0.4371
     27 O          22.2733   70.7834   -1.6579 O.2     1  UNL1       -0.5170
     28 O          23.8040   72.8839   -1.3307 O.3     1  UNL1       -0.2858
     29 O          23.2465   73.3788    0.9152 O.3     1  UNL1       -0.3226
     30 O          25.0690   76.9025   -0.3266 O.3     1  UNL1       -0.3794
     31 O          23.2413   75.4762   -2.0962 O.3     1  UNL1       -0.3775
     32 O          24.1631   75.8464    2.0596 O.3     1  UNL1       -0.3792
     33 C          24.8119   75.5035   -0.2418 C.3     1  UNL1        0.1718
     34 C          23.3858   75.1929   -0.7085 C.3     1  UNL1        0.1968
     35 C          24.9980   75.0529    1.2097 C.3     1  UNL1        0.1723
     36 C          23.0418   73.7190   -0.4601 C.3     1  UNL1        0.2706
     37 C          24.5896   73.5880    1.3486 C.3     1  UNL1        0.1830
     38 H          25.9794   77.0526   -0.0199 H       1  UNL1        0.2105
     39 H          22.3285   75.2559   -2.3472 H       1  UNL1        0.2106
     40 H          23.2411   75.5623    1.9394 H       1  UNL1        0.2106
     41 O          23.7087   72.1756    3.0018 O.co2   1  UNL1       -0.5466
     42 O          25.3935   73.5791    3.6254 O.co2   1  UNL1       -0.5466
     43 C          24.6319   73.1411    2.7753 C.2     1  UNL1        0.0799
@<TRIPOS>UNITY_ATOM_ATTR
41 1
charge -1
@<TRIPOS>BOND
     1     1     4    1
     2     1    24    1
     3     1     2    1
     4     1     3    2
     5    25    28    1
     6    25    24    1
     7    25    26    1
     8    25    27    2
     9     6    11    1
    10     6    12    1
    11    29    36    1
    12    29    37    1
    13     7     9    1
    14     7    13    1
    15     8    10    1
    16     8    14    1
    17     4     5    1
    18    28    36    1
    19    30    33    1
    20    30    38    1
    21    31    34    1
    22    31    39    1
    23    32    35    1
    24    32    40    1
    25    41    43   ar
    26    15    19    2
    27    42    43   ar
    28    16    22    2
    29    17    12    1
    30    17    19   ar
    31    17    20   ar
    32    18    19   ar
    33    18    22   ar
    34    18    23    1
    35     9    10    1
    36     9    11    1
    37    10    12    1
    38    11     5    1
    39    33    34    1
    40    33    35    1
    41    34    36    1
    42    35    37    1
    43    37    43    1
    44    20    21   ar
    45    21    22   ar
@<TRIPOS>MOLECULE
UDP-glaA
 43 45 0 0 0
SMALL
GASTEIGER

@<TRIPOS>ATOM
      1 P          23.0102   71.5136   -2.7246 P.3     1  UNL1        0.2189
      2 O          23.0876   73.0990   -2.4118 O.3     1  UNL1       -0.4371
      3 O          24.2959   70.8973   -3.1928 O.2     1  UNL1       -0.5170
      4 O          21.7558   71.3767   -3.7362 O.3     1  UNL1       -0.3112
      5 C          21.5826   72.3643   -4.7381 C.3     1  UNL1        0.1811
      6 O          20.5553   70.5043   -5.8603 O.3     1  UNL1       -0.3308
      7 O          20.9204   72.0703   -8.3912 O.3     1  UNL1       -0.3794
      8 O          18.2866   72.4773   -7.8139 O.3     1  UNL1       -0.3779
      9 C          20.6035   72.5352   -7.0793 C.3     1  UNL1        0.1713
     10 C          19.1644   72.2091   -6.7400 C.3     1  UNL1        0.1895
     11 C          21.3687   71.6780   -6.0797 C.3     1  UNL1        0.1764
     12 C          19.2458   70.7288   -6.4082 C.3     1  UNL1        0.2383
     13 H          21.8599   72.2657   -8.5489 H       1  UNL1        0.2105
     14 H          18.3746   73.4204   -8.0352 H       1  UNL1        0.2106
     15 O          16.6389   69.8584   -7.0576 O.2     1  UNL1       -0.2464
     16 O          15.5513   69.2179   -2.6253 O.2     1  UNL1       -0.2670
     17 N          18.2611   70.3281   -5.4442 N.ar    1  UNL1       -0.2551
     18 N          16.0988   69.5405   -4.8500 N.ar    1  UNL1       -0.2743
     19 C          16.9808   69.9082   -5.8747 C.ar    1  UNL1        0.3323
     20 C          18.5680   70.3537   -4.0883 C.ar    1  UNL1        0.0869
     21 C          17.7162   69.9995   -3.1235 C.ar    1  UNL1        0.0795
     22 C          16.3582   69.5497   -3.4883 C.ar    1  UNL1        0.2626
     23 H          15.1723   69.2358   -5.1362 H       1  UNL1        0.1734
     24 O          22.4324   70.8998   -1.3446 O.3     1  UNL1       -0.2703
     25 P          21.3820   71.5023   -0.2739 P.3     1  UNL1        0.2208
     26 O          21.1478   70.2717    0.7491 O.3     1  UNL1       -0.4371
     27 O          20.1236   72.0481   -0.8857 O.2     1  UNL1       -0.5170
     28 O          22.2338   72.5805    0.5723 O.3     1  UNL1       -0.2858
     29 O          23.5661   71.8795    2.3980 O.3     1  UNL1       -0.3226
     30 O          23.1823   75.9561    3.1144 O.3     1  UNL1       -0.3794
     31 O          20.9051   74.3966    2.1720 O.3     1  UNL1       -0.3775
     32 O          24.6444   73.8636    4.1697 O.3     1  UNL1       -0.3792
     33 C          23.3019   74.7487    2.3672 C.3     1  UNL1        0.1718
     34 C          22.1153   73.8226    2.6546 C.3     1  UNL1        0.1968
     35 C          24.6121   74.0561    2.7517 C.3     1  UNL1        0.1723
     36 C          22.3203   72.4552    1.9911 C.3     1  UNL1        0.2706
     37 C          24.6914   72.6925    2.0688 C.3     1  UNL1        0.1830
     38 H          23.9539   76.5091    2.9036 H       1  UNL1        0.2105
     39 H          20.1860   73.7725    2.3674 H       1  UNL1        0.2106
     40 H          24.0310   73.1447    4.3979 H       1  UNL1        0.2106
     41 O          26.8700   72.7663    2.9358 O.co2   1  UNL1       -0.5466
     42 O          25.9902   70.7062    2.5133 O.co2   1  UNL1       -0.5466
     43 C          25.8941   71.9249    2.5173 C.2     1  UNL1        0.0799
@<TRIPOS>UNITY_ATOM_ATTR
41 1
charge -1
@<TRIPOS>BOND
     1     1     4    1
     2     1    24    1
     3     1     2    1
     4     1     3    2
     5    25    28    1
     6    25    24    1
     7    25    26    1
     8    25    27    2
     9     6    11    1
    10     6    12    1
    11    29    36    1
    12    29    37    1
    13     7     9    1
    14     7    13    1
    15     8    10    1
    16     8    14    1
    17     4     5    1
    18    28    36    1
    19    30    33    1
    20    30    38    1
    21    31    34    1
    22    31    39    1
    23    32    35    1
    24    32    40    1
    25    41    43   ar
    26    15    19    2
    27    42    43   ar
    28    16    22    2
    29    17    12    1
    30    17    19   ar
    31    17    20   ar
    32    18    19   ar
    33    18    22   ar
    34    18    23    1
    35     9    10    1
    36     9    11    1
    37    10    12    1
    38    11     5    1
    39    33    34    1
    40    33    35    1
    41    34    36    1
    42    35    37    1
    43    37    43    1
    44    20    21   ar
    45    21    22   ar
@<TRIPOS>MOLECULE
UDP-glaA
 43 45 0 0 0
SMALL
GASTEIGER

@<TRIPOS>ATOM
      1 P          21.4605   71.8581   -2.6396 P.3     1  UNL1        0.2189
      2 O          21.7312   73.4342   -2.3943 O.3     1  UNL1       -0.4371
      3 O          22.5836   71.1193   -3.3067 O.2     1  UNL1       -0.5170
      4 O          20.0394   71.8221   -3.4107 O.3     1  UNL1       -0.3112
      5 C          19.3293   70.5966   -3.4655 C.3     1  UNL1        0.1811
      6 O          17.5993   71.5299   -4.8477 O.3     1  UNL1       -0.3308
      7 O          15.6671   70.0053   -3.1350 O.3     1  UNL1       -0.3794
      8 O          15.8509   68.4421   -5.3618 O.3     1  UNL1       -0.3779
      9 C          16.9764   69.6362   -3.5678 C.3     1  UNL1        0.1713
     10 C          16.9574   69.2566   -5.0335 C.3     1  UNL1        0.1895
     11 C          17.8399   70.8907   -3.5746 C.3     1  UNL1        0.1764
     12 C          16.9038   70.6153   -5.7109 C.3     1  UNL1        0.2383
     13 H          15.7355   70.2771   -2.2039 H       1  UNL1        0.2105
     14 H          15.9007   67.6438   -4.8083 H       1  UNL1        0.2106
     15 O          15.5226   70.5450   -8.1731 O.2     1  UNL1       -0.2464
     16 O          19.4485   70.6037  -10.5860 O.2     1  UNL1       -0.2670
     17 N          17.5396   70.6120   -6.9974 N.ar    1  UNL1       -0.2551
     18 N          17.4785   70.5737   -9.3730 N.ar    1  UNL1       -0.2743
     19 C          16.7546   70.5744   -8.1734 C.ar    1  UNL1        0.3323
     20 C          18.9269   70.6455   -7.0850 C.ar    1  UNL1        0.0869
     21 C          19.6023   70.6449   -8.2364 C.ar    1  UNL1        0.0795
     22 C          18.8575   70.6059   -9.5105 C.ar    1  UNL1        0.2626
     23 H          16.9347   70.5464  -10.2313 H       1  UNL1        0.1734
     24 O          21.0852   71.3206   -1.1612 O.3     1  UNL1       -0.2703
     25 P          22.0089   71.0655    0.1404 P.3     1  UNL1        0.2208
     26 O          23.5044   71.0028   -0.4725 O.3     1  UNL1       -0.4371
     27 O          21.6181   69.8598    0.9463 O.2     1  UNL1       -0.5170
     28 O          21.9597   72.4570    0.9559 O.3     1  UNL1       -0.2858
     29 O          23.8518   73.2882    2.1084 O.3     1  UNL1       -0.3226
     30 O          20.7394   75.3335    3.9549 O.3     1  UNL1       -0.3794
     31 O          20.4594   72.5117    3.2730 O.3     1  UNL1       -0.3775
     32 O          23.4999   75.4270    3.9900 O.3     1  UNL1       -0.3792
     33 C          21.4673   74.6933    2.9105 C.3     1  UNL1        0.1718
     34 C          21.6965   73.2159    3.2468 C.3     1  UNL1        0.1968
     35 C          22.8115   75.4052    2.7352 C.3     1  UNL1        0.1723
     36 C          22.6233   72.5613    2.2148 C.3     1  UNL1        0.2706
     37 C          23.6646   74.6482    1.7198 C.3     1  UNL1        0.1830
     38 H          20.6200   76.2646    3.7011 H       1  UNL1        0.2105
     39 H          20.6552   71.5823    3.4798 H       1  UNL1        0.2106
     40 H          23.8351   74.5331    4.1740 H       1  UNL1        0.2106
     41 O          25.1117   76.0874    0.5629 O.co2   1  UNL1       -0.5466
     42 O          25.9664   74.9853    2.3661 O.co2   1  UNL1       -0.5466
     43 C          25.0365   75.2341    1.6126 C.2     1  UNL1        0.0799
@<TRIPOS>UNITY_ATOM_ATTR
41 1
charge -1
@<TRIPOS>BOND
     1     1     4    1
     2     1    24    1
     3     1     2    1
     4     1     3    2
     5    25    28    1
     6    25    24    1
     7    25    26    1
     8    25    27    2
     9     6    11    1
    10     6    12    1
    11    29    36    1
    12    29    37    1
    13     7     9    1
    14     7    13    1
    15     8    10    1
    16     8    14    1
    17     4     5    1
    18    28    36    1
    19    30    33    1
    20    30    38    1
    21    31    34    1
    22    31    39    1
    23    32    35    1
    24    32    40    1
    25    41    43   ar
    26    15    19    2
    27    42    43   ar
    28    16    22    2
    29    17    12    1
    30    17    19   ar
    31    17    20   ar
    32    18    19   ar
    33    18    22   ar
    34    18    23    1
    35     9    10    1
    36     9    11    1
    37    10    12    1
    38    11     5    1
    39    33    34    1
    40    33    35    1
    41    34    36    1
    42    35    37    1
    43    37    43    1
    44    20    21   ar
    45    21    22   ar
@<TRIPOS>MOLECULE
UDP-glaA
 43 45 0 0 0
SMALL
GASTEIGER

@<TRIPOS>ATOM
      1 P          22.5623   72.6210   -4.3825 P.3     1  UNL1        0.2189
      2 O          23.0874   72.4558   -5.9038 O.3     1  UNL1       -0.4371
      3 O          23.2595   71.7549   -3.3746 O.2     1  UNL1       -0.5170
      4 O          20.9622   72.4162   -4.4982 O.3     1  UNL1       -0.3112
      5 C          20.3683   71.3229   -3.8192 C.3     1  UNL1        0.1811
      6 O          18.3851   72.0201   -4.9832 O.3     1  UNL1       -0.3308
      7 O          16.8489   70.7035   -2.7701 O.3     1  UNL1       -0.3794
      8 O          16.7162   68.8540   -4.7694 O.3     1  UNL1       -0.3779
      9 C          18.0791   70.3069   -3.3758 C.3     1  UNL1        0.1713
     10 C          17.8246   69.7295   -4.7522 C.3     1  UNL1        0.1895
     11 C          18.8707   71.5670   -3.7002 C.3     1  UNL1        0.1764
     12 C          17.5932   70.9810   -5.5818 C.3     1  UNL1        0.2383
     13 H          17.0647   71.1020   -1.9097 H       1  UNL1        0.2105
     14 H          16.8969   68.1404   -4.1335 H       1  UNL1        0.2106
     15 O          15.8585   70.2197   -7.6762 O.2     1  UNL1       -0.2464
     16 O          19.2535   70.3724  -10.7890 O.2     1  UNL1       -0.2670
     17 N          17.9968   70.8149   -6.9488 N.ar    1  UNL1       -0.2551
     18 N          17.5503   70.2958   -9.2248 N.ar    1  UNL1       -0.2743
     19 C          17.0475   70.4290   -7.9239 C.ar    1  UNL1        0.3323
     20 C          19.3210   71.0335   -7.3121 C.ar    1  UNL1        0.0869
     21 C          19.7849   70.9028   -8.5569 C.ar    1  UNL1        0.0795
     22 C          18.8586   70.5020   -9.6344 C.ar    1  UNL1        0.2626
     23 H          16.8858   70.0185   -9.9422 H       1  UNL1        0.1734
     24 O          22.7069   74.2101   -4.1198 O.3     1  UNL1       -0.2703
     25 P          22.2830   75.1180   -2.8515 P.3     1  UNL1        0.2208
     26 O          20.6785   75.2487   -3.0084 O.3     1  UNL1       -0.4371
     27 O          23.0065   76.4313   -2.7648 O.2     1  UNL1       -0.5170
     28 O          22.4914   74.1565   -1.5725 O.3     1  UNL1       -0.2858
     29 O          21.4209   72.5373   -0.2191 O.3     1  UNL1       -0.3226
     30 O          22.4421   75.4565    2.5584 O.3     1  UNL1       -0.3794
     31 O          21.4134   76.2039   -0.0663 O.3     1  UNL1       -0.3775
     32 O          21.4262   72.8888    2.6296 O.3     1  UNL1       -0.3792
     33 C          22.5532   74.6355    1.3991 C.3     1  UNL1        0.1718
     34 C          21.3707   74.8801    0.4557 C.3     1  UNL1        0.1968
     35 C          22.5824   73.1674    1.8330 C.3     1  UNL1        0.1723
     36 C          21.3893   73.8820   -0.7087 C.3     1  UNL1        0.2706
     37 C          22.5578   72.2672    0.5996 C.3     1  UNL1        0.1830
     38 H          23.2082   75.2671    3.1266 H       1  UNL1        0.2105
     39 H          20.6534   76.3086   -0.6632 H       1  UNL1        0.2106
     40 H          20.6505   72.8492    2.0449 H       1  UNL1        0.2106
     41 O          23.6757   70.3186    1.2755 O.co2   1  UNL1       -0.5466
     42 O          21.4147   70.1819    1.0179 O.co2   1  UNL1       -0.5466
     43 C          22.4544   70.8238    0.9776 C.2     1  UNL1        0.0799
@<TRIPOS>UNITY_ATOM_ATTR
41 1
charge -1
@<TRIPOS>BOND
     1     1     4    1
     2     1    24    1
     3     1     2    1
     4     1     3    2
     5    25    28    1
     6    25    24    1
     7    25    26    1
     8    25    27    2
     9     6    11    1
    10     6    12    1
    11    29    36    1
    12    29    37    1
    13     7     9    1
    14     7    13    1
    15     8    10    1
    16     8    14    1
    17     4     5    1
    18    28    36    1
    19    30    33    1
    20    30    38    1
    21    31    34    1
    22    31    39    1
    23    32    35    1
    24    32    40    1
    25    41    43   ar
    26    15    19    2
    27    42    43   ar
    28    16    22    2
    29    17    12    1
    30    17    19   ar
    31    17    20   ar
    32    18    19   ar
    33    18    22   ar
    34    18    23    1
    35     9    10    1
    36     9    11    1
    37    10    12    1
    38    11     5    1
    39    33    34    1
    40    33    35    1
    41    34    36    1
    42    35    37    1
    43    37    43    1
    44    20    21   ar
    45    21    22   ar
@<TRIPOS>MOLECULE
UDP-glaA
 43 45 0 0 0
SMALL
GASTEIGER

@<TRIPOS>ATOM
      1 P          19.0354   71.6489   -1.9676 P.3     1  UNL1        0.2189
      2 O          19.2266   70.0453   -1.8716 O.3     1  UNL1       -0.4371
      3 O          17.6458   72.1388   -1.6830 O.2     1  UNL1       -0.5170
      4 O          19.6290   72.0256   -3.4241 O.3     1  UNL1       -0.3112
      5 C          19.8764   73.3890   -3.7228 C.3     1  UNL1        0.1811
      6 O          19.9731   72.2415   -5.8319 O.3     1  UNL1       -0.3308
      7 O          20.0151   74.9599   -7.0967 O.3     1  UNL1       -0.3794
      8 O          17.4174   74.1946   -7.4162 O.3     1  UNL1       -0.3779
      9 C          19.3172   74.5157   -5.9334 C.3     1  UNL1        0.1713
     10 C          18.1360   73.6539   -6.3267 C.3     1  UNL1        0.1895
     11 C          20.2085   73.5204   -5.2024 C.3     1  UNL1        0.1764
     12 C          18.8074   72.3344   -6.6672 C.3     1  UNL1        0.2383
     13 H          20.7835   75.4739   -6.7951 H       1  UNL1        0.2105
     14 H          17.1146   75.0816   -7.1558 H       1  UNL1        0.2106
     15 O          16.6515   71.5541   -8.3160 O.2     1  UNL1       -0.2464
     16 O          15.6179   67.9864   -5.5881 O.2     1  UNL1       -0.2670
     17 N          17.9588   71.2056   -6.4121 N.ar    1  UNL1       -0.2551
     18 N          16.1379   69.7783   -6.9562 N.ar    1  UNL1       -0.2743
     19 C          16.9028   70.9000   -7.3023 C.ar    1  UNL1        0.3323
     20 C          18.1765   70.4144   -5.2896 C.ar    1  UNL1        0.0869
     21 C          17.4386   69.3478   -4.9737 C.ar    1  UNL1        0.0795
     22 C          16.3157   68.9611   -5.8507 C.ar    1  UNL1        0.2626
     23 H          15.3728   69.5402   -7.5816 H       1  UNL1        0.1734
     24 O          20.1673   72.2098   -0.9580 O.3     1  UNL1       -0.2703
     25 P          21.4589   71.4883   -0.3070 P.3     1  UNL1        0.2208
     26 O          22.2995   70.9966   -1.5984 O.3     1  UNL1       -0.4371
     27 O          21.1276   70.3965    0.6697 O.2     1  UNL1       -0.5170
     28 O          22.3322   72.6953    0.3133 O.3     1  UNL1       -0.2858
     29 O          23.4494   71.8671    2.2278 O.3     1  UNL1       -0.3226
     30 O          24.7083   75.8275    2.1299 O.3     1  UNL1       -0.3794
     31 O          21.9371   75.1386    1.5367 O.3     1  UNL1       -0.3775
     32 O          25.3495   73.5544    3.5624 O.3     1  UNL1       -0.3792
     33 C          24.2948   74.5571    1.6344 C.3     1  UNL1        0.1718
     34 C          22.8747   74.2340    2.1109 C.3     1  UNL1        0.1968
     35 C          25.2710   73.4888    2.1346 C.3     1  UNL1        0.1723
     36 C          22.4862   72.8005    1.7280 C.3     1  UNL1        0.2706
     37 C          24.7665   72.1044    1.7334 C.3     1  UNL1        0.1830
     38 H          25.6110   75.9889    1.8064 H       1  UNL1        0.2105
     39 H          21.0544   74.8897    1.8587 H       1  UNL1        0.2106
     40 H          24.5309   73.1845    3.9341 H       1  UNL1        0.2106
     41 O          24.8645   69.9563    2.6713 O.co2   1  UNL1       -0.5466
     42 O          26.8346   71.0807    2.4440 O.co2   1  UNL1       -0.5466
     43 C          25.6206   71.0217    2.3123 C.2     1  UNL1        0.0799
@<TRIPOS>UNITY_ATOM_ATTR
41 1
charge -1
@<TRIPOS>BOND
     1     1     4    1
     2     1    24    1
     3     1     2    1
     4     1     3    2
     5    25    28    1
     6    25    24    1
     7    25    26    1
     8    25    27    2
     9     6    11    1
    10     6    12    1
    11    29    36    1
    12    29    37    1
    13     7     9    1
    14     7    13    1
    15     8    10    1
    16     8    14    1
    17     4     5    1
    18    28    36    1
    19    30    33    1
    20    30    38    1
    21    31    34    1
    22    31    39    1
    23    32    35    1
    24    32    40    1
    25    41    43   ar
    26    15    19    2
    27    42    43   ar
    28    16    22    2
    29    17    12    1
    30    17    19   ar
    31    17    20   ar
    32    18    19   ar
    33    18    22   ar
    34    18    23    1
    35     9    10    1
    36     9    11    1
    37    10    12    1
    38    11     5    1
    39    33    34    1
    40    33    35    1
    41    34    36    1
    42    35    37    1
    43    37    43    1
    44    20    21   ar
    45    21    22   ar
@<TRIPOS>MOLECULE
UDP-glaA
 43 45 0 0 0
SMALL
GASTEIGER

@<TRIPOS>ATOM
      1 P          20.6365   70.5241   -3.6448 P.3     1  UNL1        0.2189
      2 O          21.2259   71.4922   -4.7993 O.3     1  UNL1       -0.4371
      3 O          20.3721   69.1116   -4.0772 O.2     1  UNL1       -0.5170
      4 O          19.3598   71.3343   -3.0711 O.3     1  UNL1       -0.3112
      5 C          18.7744   72.3384   -3.8823 C.3     1  UNL1        0.1811
      6 O          16.9744   72.1473   -5.4628 O.3     1  UNL1       -0.3308
      7 O          15.5283   70.5937   -3.3447 O.3     1  UNL1       -0.3794
      8 O          16.4601   68.6303   -4.9917 O.3     1  UNL1       -0.3779
      9 C          16.9204   70.6115   -3.6598 C.3     1  UNL1        0.1713
     10 C          17.1789   69.8453   -4.9399 C.3     1  UNL1        0.1895
     11 C          17.2937   72.0332   -4.0584 C.3     1  UNL1        0.1764
     12 C          16.7266   70.8369   -5.9983 C.3     1  UNL1        0.2383
     13 H          15.4061   71.1279   -2.5414 H       1  UNL1        0.2105
     14 H          16.7275   68.0990   -4.2220 H       1  UNL1        0.2106
     15 O          15.5204   70.7024   -8.5482 O.2     1  UNL1       -0.2464
     16 O          19.5966   70.2760  -10.6557 O.2     1  UNL1       -0.2670
     17 N          17.4485   70.6915   -7.2300 N.ar    1  UNL1       -0.2551
     18 N          17.5509   70.4897   -9.5959 N.ar    1  UNL1       -0.2743
     19 C          16.7474   70.6333   -8.4571 C.ar    1  UNL1        0.3323
     20 C          18.8363   70.6078   -7.2143 C.ar    1  UNL1        0.0869
     21 C          19.5882   70.4715   -8.3088 C.ar    1  UNL1        0.0795
     22 C          18.9340   70.4017   -9.6304 C.ar    1  UNL1        0.2626
     23 H          17.0683   70.4450  -10.4893 H       1  UNL1        0.1734
     24 O          21.7243   70.6725   -2.4573 O.3     1  UNL1       -0.2703
     25 P          23.0679   71.5652   -2.3557 P.3     1  UNL1        0.2208
     26 O          22.6315   72.9704   -3.0273 O.3     1  UNL1       -0.4371
     27 O          24.2780   70.9298   -2.9784 O.2     1  UNL1       -0.5170
     28 O          23.2223   71.8943   -0.7836 O.3     1  UNL1       -0.2858
     29 O          24.5027   70.8746    0.9253 O.3     1  UNL1       -0.3226
     30 O          21.0595   71.9945    2.9673 O.3     1  UNL1       -0.3794
     31 O          20.8898   70.8707    0.2814 O.3     1  UNL1       -0.3775
     32 O          23.5435   70.9833    3.6284 O.3     1  UNL1       -0.3792
     33 C          22.1125   72.0639    2.0099 C.3     1  UNL1        0.1718
     34 C          22.0691   70.8477    1.0786 C.3     1  UNL1        0.1968
     35 C          23.4523   72.1096    2.7498 C.3     1  UNL1        0.1723
     36 C          23.2955   70.8245    0.1578 C.3     1  UNL1        0.2706
     37 C          24.5977   72.0406    1.7420 C.3     1  UNL1        0.1830
     38 H          21.1272   72.7809    3.5353 H       1  UNL1        0.2105
     39 H          20.9111   70.0894   -0.2966 H       1  UNL1        0.2106
     40 H          23.7030   70.1868    3.0942 H       1  UNL1        0.2106
     41 O          26.1237   73.0282    3.2252 O.co2   1  UNL1       -0.5466
     42 O          26.7232   71.0362    2.2926 O.co2   1  UNL1       -0.5466
     43 C          25.9244   71.9518    2.4268 C.2     1  UNL1        0.0799
@<TRIPOS>UNITY_ATOM_ATTR
41 1
charge -1
@<TRIPOS>BOND
     1     1     4    1
     2     1    24    1
     3     1     2    1
     4     1     3    2
     5    25    28    1
     6    25    24    1
     7    25    26    1
     8    25    27    2
     9     6    11    1
    10     6    12    1
    11    29    36    1
    12    29    37    1
    13     7     9    1
    14     7    13    1
    15     8    10    1
    16     8    14    1
    17     4     5    1
    18    28    36    1
    19    30    33    1
    20    30    38    1
    21    31    34    1
    22    31    39    1
    23    32    35    1
    24    32    40    1
    25    41    43   ar
    26    15    19    2
    27    42    43   ar
    28    16    22    2
    29    17    12    1
    30    17    19   ar
    31    17    20   ar
    32    18    19   ar
    33    18    22   ar
    34    18    23    1
    35     9    10    1
    36     9    11    1
    37    10    12    1
    38    11     5    1
    39    33    34    1
    40    33    35    1
    41    34    36    1
    42    35    37    1
    43    37    43    1
    44    20    21   ar
    45    21    22   ar
@<TRIPOS>MOLECULE
UDP-glaA
 43 45 0 0 0
SMALL
GASTEIGER

@<TRIPOS>ATOM
      1 P          21.6484   71.7315   -2.2773 P.3     1  UNL1        0.2189
      2 O          20.9922   73.0549   -2.9371 O.3     1  UNL1       -0.4371
      3 O          22.9344   71.2815   -2.9066 O.2     1  UNL1       -0.5170
      4 O          20.4444   70.6518   -2.2896 O.3     1  UNL1       -0.3112
      5 C          19.8336   70.3324   -3.5282 C.3     1  UNL1        0.1811
      6 O          18.1292   71.5056   -4.7502 O.3     1  UNL1       -0.3308
      7 O          16.1656   70.2017   -2.8967 O.3     1  UNL1       -0.3794
      8 O          15.9647   68.6748   -5.1471 O.3     1  UNL1       -0.3779
      9 C          17.3770   69.6793   -3.4420 C.3     1  UNL1        0.1713
     10 C          17.1893   69.3359   -4.9047 C.3     1  UNL1        0.1895
     11 C          18.3901   70.8145   -3.5085 C.3     1  UNL1        0.1764
     12 C          17.2541   70.7045   -5.5611 C.3     1  UNL1        0.2383
     13 H          16.3444   70.4432   -1.9719 H       1  UNL1        0.2105
     14 H          15.9574   67.8652   -4.6080 H       1  UNL1        0.2106
     15 O          15.6833   70.2994   -7.8728 O.2     1  UNL1       -0.2464
     16 O          19.3673   70.5028  -10.6342 O.2     1  UNL1       -0.2670
     17 N          17.7764   70.6477   -6.8966 N.ar    1  UNL1       -0.2551
     18 N          17.5189   70.4004   -9.2463 N.ar    1  UNL1       -0.2743
     19 C          16.9022   70.4391   -7.9888 C.ar    1  UNL1        0.3323
     20 C          19.1415   70.7979   -7.1139 C.ar    1  UNL1        0.0869
     21 C          19.7141   70.7591   -8.3190 C.ar    1  UNL1        0.0795
     22 C          18.8718   70.5442   -9.5123 C.ar    1  UNL1        0.2626
     23 H          16.9099   70.2508  -10.0462 H       1  UNL1        0.1734
     24 O          21.7660   72.1265   -0.7135 O.3     1  UNL1       -0.2703
     25 P          22.3986   71.3232    0.5383 P.3     1  UNL1        0.2208
     26 O          23.8319   70.8282   -0.0246 O.3     1  UNL1       -0.4371
     27 O          21.5262   70.2211    1.0674 O.2     1  UNL1       -0.5170
     28 O          22.7571   72.4667    1.6189 O.3     1  UNL1       -0.2858
     29 O          21.4828   73.4114    3.3749 O.3     1  UNL1       -0.3226
     30 O          23.7396   76.6581    2.0921 O.3     1  UNL1       -0.3794
     31 O          22.5791   74.8051    0.1619 O.3     1  UNL1       -0.3775
     32 O          22.0370   76.1054    4.1958 O.3     1  UNL1       -0.3792
     33 C          23.4213   75.3009    2.3871 C.3     1  UNL1        0.1718
     34 C          22.2308   74.8354    1.5419 C.3     1  UNL1        0.1968
     35 C          23.0844   75.1836    3.8761 C.3     1  UNL1        0.1723
     36 C          21.7723   73.4367    1.9733 C.3     1  UNL1        0.2706
     37 C          22.6032   73.7673    4.1834 C.3     1  UNL1        0.1830
     38 H          24.4950   76.9102    2.6502 H       1  UNL1        0.2105
     39 H          21.8001   74.4965   -0.3307 H       1  UNL1        0.2106
     40 H          21.2025   75.7625    3.8336 H       1  UNL1        0.2106
     41 O          20.8904   74.1464    5.7411 O.co2   1  UNL1       -0.5466
     42 O          22.7914   73.1505    6.5102 O.co2   1  UNL1       -0.5466
     43 C          22.1399   73.6420    5.6000 C.2     1  UNL1        0.0799
@<TRIPOS>UNITY_ATOM_ATTR
41 1
charge -1
@<TRIPOS>BOND
     1     1     4    1
     2     1    24    1
     3     1     2    1
     4     1     3    2
     5    25    28    1
     6    25    24    1
     7    25    26    1
     8    25    27    2
     9     6    11    1
    10     6    12    1
    11    29    36    1
    12    29    37    1
    13     7     9    1
    14     7    13    1
    15     8    10    1
    16     8    14    1
    17     4     5    1
    18    28    36    1
    19    30    33    1
    20    30    38    1
    21    31    34    1
    22    31    39    1
    23    32    35    1
    24    32    40    1
    25    41    43   ar
    26    15    19    2
    27    42    43   ar
    28    16    22    2
    29    17    12    1
    30    17    19   ar
    31    17    20   ar
    32    18    19   ar
    33    18    22   ar
    34    18    23    1
    35     9    10    1
    36     9    11    1
    37    10    12    1
    38    11     5    1
    39    33    34    1
    40    33    35    1
    41    34    36    1
    42    35    37    1
    43    37    43    1
    44    20    21   ar
    45    21    22   ar
@<TRIPOS>MOLECULE
UDP-glaA
 43 45 0 0 0
SMALL
GASTEIGER

@<TRIPOS>ATOM
      1 P          21.8176   72.5878   -4.8054 P.3     1  UNL1        0.2189
      2 O          20.9313   73.8702   -5.2379 O.3     1  UNL1       -0.4371
      3 O          23.1199   72.4426   -5.5368 O.2     1  UNL1       -0.5170
      4 O          20.7936   71.3432   -4.9394 O.3     1  UNL1       -0.3112
      5 C          20.2505   70.7823   -3.7563 C.3     1  UNL1        0.1811
      6 O          18.3756   71.7337   -4.9199 O.3     1  UNL1       -0.3308
      7 O          16.6611   70.4545   -2.8186 O.3     1  UNL1       -0.3794
      8 O          16.4031   68.7395   -4.9229 O.3     1  UNL1       -0.3779
      9 C          17.8628   69.9730   -3.4201 C.3     1  UNL1        0.1713
     10 C          17.5902   69.4998   -4.8323 C.3     1  UNL1        0.1895
     11 C          18.7809   71.1653   -3.6551 C.3     1  UNL1        0.1764
     12 C          17.5030   70.8116   -5.5936 C.3     1  UNL1        0.2383
     13 H          16.8916   70.7819   -1.9325 H       1  UNL1        0.2105
     14 H          16.4970   67.9778   -4.3253 H       1  UNL1        0.2106
     15 O          15.7802   70.1905   -7.7434 O.2     1  UNL1       -0.2464
     16 O          19.2330   70.3380  -10.7922 O.2     1  UNL1       -0.2670
     17 N          17.9247   70.6821   -6.9591 N.ar    1  UNL1       -0.2551
     18 N          17.5008   70.2638   -9.2600 N.ar    1  UNL1       -0.2743
     19 C          16.9799   70.3665   -7.9634 C.ar    1  UNL1        0.3323
     20 C          19.2619   70.8671   -7.2921 C.ar    1  UNL1        0.0869
     21 C          19.7429   70.7662   -8.5332 C.ar    1  UNL1        0.0795
     22 C          18.8225   70.4386   -9.6401 C.ar    1  UNL1        0.2626
     23 H          16.8398   70.0371   -9.9982 H       1  UNL1        0.1734
     24 O          21.9607   72.7694   -3.2048 O.3     1  UNL1       -0.2703
     25 P          23.2062   72.4900   -2.2132 P.3     1  UNL1        0.2208
     26 O          24.2313   73.6931   -2.5569 O.3     1  UNL1       -0.4371
     27 O          23.7984   71.1156   -2.3402 O.2     1  UNL1       -0.5170
     28 O          22.6440   72.8404   -0.7418 O.3     1  UNL1       -0.2858
     29 O          22.3385   71.4416    1.1422 O.3     1  UNL1       -0.3226
     30 O          19.2409   74.1791    1.5784 O.3     1  UNL1       -0.3794
     31 O          19.9136   73.1093   -1.0501 O.3     1  UNL1       -0.3775
     32 O          20.3557   72.1547    3.0913 O.3     1  UNL1       -0.3792
     33 C          20.5305   73.6837    1.2294 C.3     1  UNL1        0.1718
     34 C          20.4110   72.5791    0.1740 C.3     1  UNL1        0.1968
     35 C          21.2073   73.1345    2.4882 C.3     1  UNL1        0.1723
     36 C          21.7733   71.9225   -0.0818 C.3     1  UNL1        0.2706
     37 C          22.5301   72.4708    2.1116 C.3     1  UNL1        0.1830
     38 H          19.3646   74.8725    2.2489 H       1  UNL1        0.2105
     39 H          19.8643   72.3776   -1.6881 H       1  UNL1        0.2106
     40 H          20.3832   71.3470    2.5509 H       1  UNL1        0.2106
     41 O          24.0662   70.8779    2.8909 O.co2   1  UNL1       -0.5466
     42 O          22.9121   72.0618    4.4604 O.co2   1  UNL1       -0.5466
     43 C          23.1645   71.8062    3.2919 C.2     1  UNL1        0.0799
@<TRIPOS>UNITY_ATOM_ATTR
41 1
charge -1
@<TRIPOS>BOND
     1     1     4    1
     2     1    24    1
     3     1     2    1
     4     1     3    2
     5    25    28    1
     6    25    24    1
     7    25    26    1
     8    25    27    2
     9     6    11    1
    10     6    12    1
    11    29    36    1
    12    29    37    1
    13     7     9    1
    14     7    13    1
    15     8    10    1
    16     8    14    1
    17     4     5    1
    18    28    36    1
    19    30    33    1
    20    30    38    1
    21    31    34    1
    22    31    39    1
    23    32    35    1
    24    32    40    1
    25    41    43   ar
    26    15    19    2
    27    42    43   ar
    28    16    22    2
    29    17    12    1
    30    17    19   ar
    31    17    20   ar
    32    18    19   ar
    33    18    22   ar
    34    18    23    1
    35     9    10    1
    36     9    11    1
    37    10    12    1
    38    11     5    1
    39    33    34    1
    40    33    35    1
    41    34    36    1
    42    35    37    1
    43    37    43    1
    44    20    21   ar
    45    21    22   ar
@<TRIPOS>MOLECULE
UDP-glaA
 43 45 0 0 0
SMALL
GASTEIGER

@<TRIPOS>ATOM
      1 P          22.8049   71.6058   -2.7485 P.3     1  UNL1        0.2189
      2 O          22.9779   73.2138   -2.7068 O.3     1  UNL1       -0.4371
      3 O          24.0853   70.8347   -2.8833 O.2     1  UNL1       -0.5170
      4 O          21.7111   71.3616   -3.9145 O.3     1  UNL1       -0.3112
      5 C          21.5770   72.3384   -4.9328 C.3     1  UNL1        0.1811
      6 O          20.5254   70.4693   -6.0168 O.3     1  UNL1       -0.3308
      7 O          20.8479   72.0081   -8.5701 O.3     1  UNL1       -0.3794
      8 O          18.2259   72.4272   -7.9493 O.3     1  UNL1       -0.3779
      9 C          20.5558   72.4872   -7.2575 C.3     1  UNL1        0.1713
     10 C          19.1224   72.1680   -6.8888 C.3     1  UNL1        0.1895
     11 C          21.3373   71.6387   -6.2631 C.3     1  UNL1        0.1764
     12 C          19.2067   70.6911   -6.5431 C.3     1  UNL1        0.2383
     13 H          21.7847   72.1996   -8.7468 H       1  UNL1        0.2105
     14 H          18.3118   73.3678   -8.1820 H       1  UNL1        0.2106
     15 O          16.5755   69.8526   -7.1341 O.2     1  UNL1       -0.2464
     16 O          15.5788   69.2264   -2.6784 O.2     1  UNL1       -0.2670
     17 N          18.2388   70.3027   -5.5573 N.ar    1  UNL1       -0.2551
     18 N          16.0808   69.5418   -4.9149 N.ar    1  UNL1       -0.2743
     19 C          16.9442   69.8985   -5.9591 C.ar    1  UNL1        0.3323
     20 C          18.5760   70.3249   -4.2085 C.ar    1  UNL1        0.0869
     21 C          17.7416   69.9814   -3.2249 C.ar    1  UNL1        0.0795
     22 C          16.3704   69.5481   -3.5592 C.ar    1  UNL1        0.2626
     23 H          15.1445   69.2485   -5.1802 H       1  UNL1        0.1734
     24 O          21.9712   71.2960   -1.3979 O.3     1  UNL1       -0.2703
     25 P          22.4587   71.1278    0.1340 P.3     1  UNL1        0.2208
     26 O          24.0646   70.9899   -0.0007 O.3     1  UNL1       -0.4371
     27 O          21.7988   69.9969    0.8698 O.2     1  UNL1       -0.5170
     28 O          22.2277   72.5802    0.7984 O.3     1  UNL1       -0.2858
     29 O          23.1686   74.6191    1.5447 O.3     1  UNL1       -0.3226
     30 O          22.1730   72.7570    5.1253 O.3     1  UNL1       -0.3794
     31 O          23.3379   71.2263    2.9331 O.3     1  UNL1       -0.3775
     32 O          23.0667   75.2508    4.3427 O.3     1  UNL1       -0.3792
     33 C          22.0704   73.1305    3.7541 C.3     1  UNL1        0.1718
     34 C          23.2993   72.6488    2.9756 C.3     1  UNL1        0.1968
     35 C          21.9569   74.6547    3.6631 C.3     1  UNL1        0.1723
     36 C          23.2811   73.1921    1.5414 C.3     1  UNL1        0.2706
     37 C          21.9891   75.0852    2.1982 C.3     1  UNL1        0.1830
     38 H          21.3772   73.0836    5.5786 H       1  UNL1        0.2105
     39 H          24.1250   70.9692    2.4238 H       1  UNL1        0.2106
     40 H          23.8623   75.1344    3.7963 H       1  UNL1        0.2106
     41 O          22.5997   76.9431    0.9025 O.co2   1  UNL1       -0.5466
     42 O          21.5597   77.3588    2.8881 O.co2   1  UNL1       -0.5466
     43 C          22.0112   76.5748    2.0660 C.2     1  UNL1        0.0799
@<TRIPOS>UNITY_ATOM_ATTR
41 1
charge -1
@<TRIPOS>BOND
     1     1     4    1
     2     1    24    1
     3     1     2    1
     4     1     3    2
     5    25    28    1
     6    25    24    1
     7    25    26    1
     8    25    27    2
     9     6    11    1
    10     6    12    1
    11    29    36    1
    12    29    37    1
    13     7     9    1
    14     7    13    1
    15     8    10    1
    16     8    14    1
    17     4     5    1
    18    28    36    1
    19    30    33    1
    20    30    38    1
    21    31    34    1
    22    31    39    1
    23    32    35    1
    24    32    40    1
    25    41    43   ar
    26    15    19    2
    27    42    43   ar
    28    16    22    2
    29    17    12    1
    30    17    19   ar
    31    17    20   ar
    32    18    19   ar
    33    18    22   ar
    34    18    23    1
    35     9    10    1
    36     9    11    1
    37    10    12    1
    38    11     5    1
    39    33    34    1
    40    33    35    1
    41    34    36    1
    42    35    37    1
    43    37    43    1
    44    20    21   ar
    45    21    22   ar
@<TRIPOS>MOLECULE
UDP-glaA
 43 45 0 0 0
SMALL
GASTEIGER

@<TRIPOS>ATOM
      1 P          22.2234   72.3631   -2.0859 P.3     1  UNL1        0.2189
      2 O          21.3301   73.6145   -2.5890 O.3     1  UNL1       -0.4371
      3 O          23.7031   72.5240   -2.2776 O.2     1  UNL1       -0.5170
      4 O          21.5543   71.0866   -2.8196 O.3     1  UNL1       -0.3112
      5 C          20.7744   71.3057   -3.9828 C.3     1  UNL1        0.1811
      6 O          20.9418   70.4166   -6.2089 O.3     1  UNL1       -0.3308
      7 O          23.2097   72.3379   -6.6046 O.3     1  UNL1       -0.3794
      8 O          21.1368   73.5993   -7.8487 O.3     1  UNL1       -0.3779
      9 C          22.0043   72.5049   -5.8585 C.3     1  UNL1        0.1713
     10 C          20.8317   72.7101   -6.7942 C.3     1  UNL1        0.1895
     11 C          21.6645   71.1695   -5.2099 C.3     1  UNL1        0.1764
     12 C          20.5653   71.2960   -7.2814 C.3     1  UNL1        0.2383
     13 H          23.9245   72.1710   -5.9668 H       1  UNL1        0.2105
     14 H          21.4011   74.4463   -7.4501 H       1  UNL1        0.2106
     15 O          19.5851   70.8347   -9.8894 O.2     1  UNL1       -0.2464
     16 O          15.2423   70.4726   -8.3903 O.2     1  UNL1       -0.2670
     17 N          19.1836   71.0775   -7.6014 N.ar    1  UNL1       -0.2551
     18 N          17.4231   70.6552   -9.1413 N.ar    1  UNL1       -0.2743
     19 C          18.7956   70.8560   -8.9435 C.ar    1  UNL1        0.3323
     20 C          18.2286   71.0843   -6.5907 C.ar    1  UNL1        0.0869
     21 C          16.9238   70.8908   -6.7955 C.ar    1  UNL1        0.0795
     22 C          16.4356   70.6534   -8.1684 C.ar    1  UNL1        0.2626
     23 H          17.1211   70.4946  -10.0984 H       1  UNL1        0.1734
     24 O          21.7594   72.1820   -0.5473 O.3     1  UNL1       -0.2703
     25 P          22.4640   71.4164    0.6895 P.3     1  UNL1        0.2208
     26 O          23.9327   71.0569    0.1152 O.3     1  UNL1       -0.4371
     27 O          21.6924   70.2343    1.2023 O.2     1  UNL1       -0.5170
     28 O          22.7259   72.5689    1.7882 O.3     1  UNL1       -0.2858
     29 O          24.6117   72.5120    3.2164 O.3     1  UNL1       -0.3226
     30 O          22.0475   75.0662    5.2610 O.3     1  UNL1       -0.3794
     31 O          21.0208   72.6677    3.9574 O.3     1  UNL1       -0.3775
     32 O          24.6775   74.2550    5.4959 O.3     1  UNL1       -0.3792
     33 C          22.6789   74.4340    4.1510 C.3     1  UNL1        0.1718
     34 C          22.4049   72.9264    4.1677 C.3     1  UNL1        0.1968
     35 C          24.1861   74.6934    4.2250 C.3     1  UNL1        0.1723
     36 C          23.2183   72.2144    3.0797 C.3     1  UNL1        0.2706
     37 C          24.8967   73.9070    3.1256 C.3     1  UNL1        0.1830
     38 H          22.2493   76.0161    5.2113 H       1  UNL1        0.2105
     39 H          20.8979   71.7035    3.9667 H       1  UNL1        0.2106
     40 H          24.6999   73.2831    5.4999 H       1  UNL1        0.2106
     41 O          26.7298   75.2559    3.6949 O.co2   1  UNL1       -0.5466
     42 O          27.1819   73.1438    2.9657 O.co2   1  UNL1       -0.5466
     43 C          26.3831   74.0277    3.2399 C.2     1  UNL1        0.0799
@<TRIPOS>UNITY_ATOM_ATTR
41 1
charge -1
@<TRIPOS>BOND
     1     1     4    1
     2     1    24    1
     3     1     2    1
     4     1     3    2
     5    25    28    1
     6    25    24    1
     7    25    26    1
     8    25    27    2
     9     6    11    1
    10     6    12    1
    11    29    36    1
    12    29    37    1
    13     7     9    1
    14     7    13    1
    15     8    10    1
    16     8    14    1
    17     4     5    1
    18    28    36    1
    19    30    33    1
    20    30    38    1
    21    31    34    1
    22    31    39    1
    23    32    35    1
    24    32    40    1
    25    41    43   ar
    26    15    19    2
    27    42    43   ar
    28    16    22    2
    29    17    12    1
    30    17    19   ar
    31    17    20   ar
    32    18    19   ar
    33    18    22   ar
    34    18    23    1
    35     9    10    1
    36     9    11    1
    37    10    12    1
    38    11     5    1
    39    33    34    1
    40    33    35    1
    41    34    36    1
    42    35    37    1
    43    37    43    1
    44    20    21   ar
    45    21    22   ar
@<TRIPOS>MOLECULE
UDP-glaA
 43 45 0 0 0
SMALL
GASTEIGER

@<TRIPOS>ATOM
      1 P          23.4314   71.9764   -3.2757 P.3     1  UNL1        0.2189
      2 O          24.1520   72.9890   -4.3115 O.3     1  UNL1       -0.4371
      3 O          24.1950   70.7172   -2.9868 O.2     1  UNL1       -0.5170
      4 O          21.9509   71.7744   -3.8945 O.3     1  UNL1       -0.3112
      5 C          21.5414   72.6151   -4.9597 C.3     1  UNL1        0.1811
      6 O          20.6858   70.5862   -5.9218 O.3     1  UNL1       -0.3308
      7 O          21.0526   71.9149   -8.5848 O.3     1  UNL1       -0.3794
      8 O          18.3761   72.1934   -8.1440 O.3     1  UNL1       -0.3779
      9 C          20.6515   72.4845   -7.3388 C.3     1  UNL1        0.1713
     10 C          19.2240   72.0945   -7.0184 C.3     1  UNL1        0.1895
     11 C          21.4290   71.7858   -6.2311 C.3     1  UNL1        0.1764
     12 C          19.3884   70.6637   -6.5350 C.3     1  UNL1        0.2383
     13 H          21.9830   72.1584   -8.7287 H       1  UNL1        0.2105
     14 H          18.4111   73.1137   -8.4569 H       1  UNL1        0.2106
     15 O          16.7819   69.7929   -7.1857 O.2     1  UNL1       -0.2464
     16 O          15.6515   69.2704   -2.7486 O.2     1  UNL1       -0.2670
     17 N          18.3928   70.2933   -5.5701 N.ar    1  UNL1       -0.2551
     18 N          16.2205   69.5338   -4.9757 N.ar    1  UNL1       -0.2743
     19 C          17.1138   69.8704   -6.0014 C.ar    1  UNL1        0.3323
     20 C          18.6879   70.3511   -4.2126 C.ar    1  UNL1        0.0869
     21 C          17.8255   70.0264   -3.2468 C.ar    1  UNL1        0.0795
     22 C          16.4680   69.5756   -3.6124 C.ar    1  UNL1        0.2626
     23 H          15.2947   69.2276   -5.2624 H       1  UNL1        0.1734
     24 O          23.1607   72.9113   -1.9842 O.3     1  UNL1       -0.2703
     25 P          22.6097   74.4264   -1.8688 P.3     1  UNL1        0.2208
     26 O          21.0085   74.2512   -2.0167 O.3     1  UNL1       -0.4371
     27 O          23.2224   75.3813   -2.8530 O.2     1  UNL1       -0.5170
     28 O          22.8356   74.8271   -0.3221 O.3     1  UNL1       -0.2858
     29 O          21.8023   73.1782    1.0244 O.3     1  UNL1       -0.3226
     30 O          23.2997   75.8130    3.8695 O.3     1  UNL1       -0.3794
     31 O          22.0598   76.8166    1.4279 O.3     1  UNL1       -0.3775
     32 O          22.1243   73.3133    3.8733 O.3     1  UNL1       -0.3792
     33 C          23.2350   75.0764    2.6515 C.3     1  UNL1        0.1718
     34 C          21.9810   75.4622    1.8596 C.3     1  UNL1        0.1968
     35 C          23.2087   73.5807    2.9781 C.3     1  UNL1        0.1723
     36 C          21.8120   74.5554    0.6343 C.3     1  UNL1        0.2706
     37 C          22.9963   72.7791    1.6957 C.3     1  UNL1        0.1830
     38 H          24.1055   75.5355    4.3377 H       1  UNL1        0.2105
     39 H          21.2513   77.0116    0.9247 H       1  UNL1        0.2106
     40 H          21.2917   73.3647    3.3741 H       1  UNL1        0.2106
     41 O          23.8158   70.8833    2.8085 O.co2   1  UNL1       -0.5466
     42 O          21.9409   70.6131    1.5403 O.co2   1  UNL1       -0.5466
     43 C          22.8345   71.3202    1.9829 C.2     1  UNL1        0.0799
@<TRIPOS>UNITY_ATOM_ATTR
41 1
charge -1
@<TRIPOS>BOND
     1     1     4    1
     2     1    24    1
     3     1     2    1
     4     1     3    2
     5    25    28    1
     6    25    24    1
     7    25    26    1
     8    25    27    2
     9     6    11    1
    10     6    12    1
    11    29    36    1
    12    29    37    1
    13     7     9    1
    14     7    13    1
    15     8    10    1
    16     8    14    1
    17     4     5    1
    18    28    36    1
    19    30    33    1
    20    30    38    1
    21    31    34    1
    22    31    39    1
    23    32    35    1
    24    32    40    1
    25    41    43   ar
    26    15    19    2
    27    42    43   ar
    28    16    22    2
    29    17    12    1
    30    17    19   ar
    31    17    20   ar
    32    18    19   ar
    33    18    22   ar
    34    18    23    1
    35     9    10    1
    36     9    11    1
    37    10    12    1
    38    11     5    1
    39    33    34    1
    40    33    35    1
    41    34    36    1
    42    35    37    1
    43    37    43    1
    44    20    21   ar
    45    21    22   ar
@<TRIPOS>MOLECULE
UDP-glaA
 43 45 0 0 0
SMALL
GASTEIGER

@<TRIPOS>ATOM
      1 P          23.4830   72.0666   -3.3093 P.3     1  UNL1        0.2189
      2 O          24.1705   72.9159   -4.5024 O.3     1  UNL1       -0.4371
      3 O          24.1513   70.7600   -2.9960 O.2     1  UNL1       -0.5170
      4 O          21.9276   71.9745   -3.7428 O.3     1  UNL1       -0.3112
      5 C          21.4765   72.7751   -4.8220 C.3     1  UNL1        0.1811
      6 O          20.7215   70.7093   -5.7897 O.3     1  UNL1       -0.3308
      7 O          21.1475   72.0181   -8.4537 O.3     1  UNL1       -0.3794
      8 O          18.4488   72.2171   -8.1172 O.3     1  UNL1       -0.3779
      9 C          20.6820   72.5891   -7.2310 C.3     1  UNL1        0.1713
     10 C          19.2561   72.1581   -6.9595 C.3     1  UNL1        0.1895
     11 C          21.4382   71.9281   -6.0860 C.3     1  UNL1        0.1764
     12 C          19.4465   70.7388   -6.4520 C.3     1  UNL1        0.2383
     13 H          22.0746   72.2892   -8.5656 H       1  UNL1        0.2105
     14 H          18.4671   73.1344   -8.4403 H       1  UNL1        0.2106
     15 O          16.9033   69.7568   -7.1890 O.2     1  UNL1       -0.2464
     16 O          15.6134   69.2732   -2.7912 O.2     1  UNL1       -0.2670
     17 N          18.4271   70.3483   -5.5206 N.ar    1  UNL1       -0.2551
     18 N          16.2625   69.5171   -4.9986 N.ar    1  UNL1       -0.2743
     19 C          17.1835   69.8687   -5.9942 C.ar    1  UNL1        0.3323
     20 C          18.6642   70.4424   -4.1537 C.ar    1  UNL1        0.0869
     21 C          17.7760   70.1027   -3.2170 C.ar    1  UNL1        0.0795
     22 C          16.4524   69.5935   -3.6275 C.ar    1  UNL1        0.2626
     23 H          15.3612   69.1703   -5.3159 H       1  UNL1        0.1734
     24 O          23.4563   73.1206   -2.0831 O.3     1  UNL1       -0.2703
     25 P          23.1490   72.9098   -0.5103 P.3     1  UNL1        0.2208
     26 O          21.5723   72.5502   -0.4853 O.3     1  UNL1       -0.4371
     27 O          23.5326   74.0766    0.3541 O.2     1  UNL1       -0.5170
     28 O          23.8894   71.5271   -0.1308 O.3     1  UNL1       -0.2858
     29 O          24.6302   71.8808    2.0886 O.3     1  UNL1       -0.3226
     30 O          20.5102   72.2779    2.4720 O.3     1  UNL1       -0.3794
     31 O          21.6465   70.1960    0.7749 O.3     1  UNL1       -0.3775
     32 O          22.7220   72.6878    4.0751 O.3     1  UNL1       -0.3792
     33 C          21.7977   72.3617    1.8673 C.3     1  UNL1        0.1718
     34 C          22.4037   70.9636    1.7045 C.3     1  UNL1        0.1968
     35 C          22.7036   73.2259    2.7488 C.3     1  UNL1        0.1723
     36 C          23.8544   71.0539    1.2150 C.3     1  UNL1        0.2706
     37 C          24.1258   73.2114    2.1928 C.3     1  UNL1        0.1830
     38 H          20.1668   73.1836    2.5574 H       1  UNL1        0.2105
     39 H          22.0720   69.3254    0.6978 H       1  UNL1        0.2106
     40 H          23.2581   71.8768    4.0719 H       1  UNL1        0.2106
     41 O          26.1753   74.3318    2.4122 O.co2   1  UNL1       -0.5466
     42 O          24.8851   74.1517    4.2830 O.co2   1  UNL1       -0.5466
     43 C          25.0732   73.9371    3.0943 C.2     1  UNL1        0.0799
@<TRIPOS>UNITY_ATOM_ATTR
41 1
charge -1
@<TRIPOS>BOND
     1     1     4    1
     2     1    24    1
     3     1     2    1
     4     1     3    2
     5    25    28    1
     6    25    24    1
     7    25    26    1
     8    25    27    2
     9     6    11    1
    10     6    12    1
    11    29    36    1
    12    29    37    1
    13     7     9    1
    14     7    13    1
    15     8    10    1
    16     8    14    1
    17     4     5    1
    18    28    36    1
    19    30    33    1
    20    30    38    1
    21    31    34    1
    22    31    39    1
    23    32    35    1
    24    32    40    1
    25    41    43   ar
    26    15    19    2
    27    42    43   ar
    28    16    22    2
    29    17    12    1
    30    17    19   ar
    31    17    20   ar
    32    18    19   ar
    33    18    22   ar
    34    18    23    1
    35     9    10    1
    36     9    11    1
    37    10    12    1
    38    11     5    1
    39    33    34    1
    40    33    35    1
    41    34    36    1
    42    35    37    1
    43    37    43    1
    44    20    21   ar
    45    21    22   ar
@<TRIPOS>MOLECULE
UDP-glaA
 43 45 0 0 0
SMALL
GASTEIGER

@<TRIPOS>ATOM
      1 P          21.9355   72.4597   -5.7935 P.3     1  UNL1        0.2189
      2 O          21.2422   73.8662   -5.3954 O.3     1  UNL1       -0.4371
      3 O          23.1515   72.5777   -6.6650 O.2     1  UNL1       -0.5170
      4 O          20.7189   71.5832   -6.3993 O.3     1  UNL1       -0.3112
      5 C          20.1798   71.9511   -7.6576 C.3     1  UNL1        0.1811
      6 O          18.9626   69.9269   -7.2156 O.3     1  UNL1       -0.3308
      7 O          18.1196   70.0271  -10.0915 O.3     1  UNL1       -0.3794
      8 O          15.9230   70.9888   -8.7933 O.3     1  UNL1       -0.3779
      9 C          18.3220   71.0998   -9.1718 C.3     1  UNL1        0.1713
     10 C          17.1823   71.1605   -8.1767 C.3     1  UNL1        0.1895
     11 C          19.5036   70.7385   -8.2813 C.3     1  UNL1        0.1764
     12 C          17.5288   70.0238   -7.2301 C.3     1  UNL1        0.2383
     13 H          18.8912   70.0030  -10.6829 H       1  UNL1        0.2105
     14 H          15.8253   71.6907   -9.4596 H       1  UNL1        0.2106
     15 O          16.2440   68.0920   -5.6200 O.2     1  UNL1       -0.2464
     16 O          15.7828   71.0516   -2.1176 O.2     1  UNL1       -0.2670
     17 N          17.0632   70.2621   -5.8938 N.ar    1  UNL1       -0.2551
     18 N          16.0147   69.5672   -3.8772 N.ar    1  UNL1       -0.2743
     19 C          16.4297   69.2244   -5.1708 C.ar    1  UNL1        0.3323
     20 C          17.2357   71.5134   -5.3124 C.ar    1  UNL1        0.0869
     21 C          16.8349   71.8243   -4.0777 C.ar    1  UNL1        0.0795
     22 C          16.1638   70.7976   -3.2561 C.ar    1  UNL1        0.2626
     23 H          15.5563   68.8369   -3.3390 H       1  UNL1        0.1734
     24 O          22.2015   71.7674   -4.3564 O.3     1  UNL1       -0.2703
     25 P          23.4190   71.9369   -3.3069 P.3     1  UNL1        0.2208
     26 O          24.2098   73.2339   -3.8624 O.3     1  UNL1       -0.4371
     27 O          24.2722   70.7108   -3.1500 O.2     1  UNL1       -0.5170
     28 O          22.7168   72.4395   -1.9437 O.3     1  UNL1       -0.2858
     29 O          22.8881   70.8946   -0.1595 O.3     1  UNL1       -0.3226
     30 O          20.2404   73.7076    1.3752 O.3     1  UNL1       -0.3794
     31 O          20.0399   72.8457   -1.4038 O.3     1  UNL1       -0.3775
     32 O          21.6164   71.5145    2.3379 O.3     1  UNL1       -0.3792
     33 C          21.3354   73.1924    0.6231 C.3     1  UNL1        0.1718
     34 C          20.8395   72.1904   -0.4250 C.3     1  UNL1        0.1968
     35 C          22.3151   72.5077    1.5801 C.3     1  UNL1        0.1723
     36 C          22.0208   71.5037   -1.1216 C.3     1  UNL1        0.2706
     37 C          23.4227   71.8261    0.7797 C.3     1  UNL1        0.1830
     38 H          20.6004   74.3339    2.0262 H       1  UNL1        0.2105
     39 H          19.7578   72.1755   -2.0488 H       1  UNL1        0.2106
     40 H          21.4313   70.7568    1.7575 H       1  UNL1        0.2106
     41 O          23.8555   71.0059    2.9346 O.co2   1  UNL1       -0.5466
     42 O          25.3610   70.4853    1.3039 O.co2   1  UNL1       -0.5466
     43 C          24.3312   71.0353    1.6664 C.2     1  UNL1        0.0799
@<TRIPOS>UNITY_ATOM_ATTR
41 1
charge -1
@<TRIPOS>BOND
     1     1     4    1
     2     1    24    1
     3     1     2    1
     4     1     3    2
     5    25    28    1
     6    25    24    1
     7    25    26    1
     8    25    27    2
     9     6    11    1
    10     6    12    1
    11    29    36    1
    12    29    37    1
    13     7     9    1
    14     7    13    1
    15     8    10    1
    16     8    14    1
    17     4     5    1
    18    28    36    1
    19    30    33    1
    20    30    38    1
    21    31    34    1
    22    31    39    1
    23    32    35    1
    24    32    40    1
    25    41    43   ar
    26    15    19    2
    27    42    43   ar
    28    16    22    2
    29    17    12    1
    30    17    19   ar
    31    17    20   ar
    32    18    19   ar
    33    18    22   ar
    34    18    23    1
    35     9    10    1
    36     9    11    1
    37    10    12    1
    38    11     5    1
    39    33    34    1
    40    33    35    1
    41    34    36    1
    42    35    37    1
    43    37    43    1
    44    20    21   ar
    45    21    22   ar
@<TRIPOS>MOLECULE
UDP-glaA
 43 45 0 0 0
SMALL
GASTEIGER

@<TRIPOS>ATOM
      1 P          21.6564   73.4682   -5.3568 P.3     1  UNL1        0.2189
      2 O          20.7686   74.7792   -5.6889 O.3     1  UNL1       -0.4371
      3 O          22.8318   73.2532   -6.2648 O.2     1  UNL1       -0.5170
      4 O          20.5750   72.2666   -5.3104 O.3     1  UNL1       -0.3112
      5 C          20.1603   71.7768   -4.0465 C.3     1  UNL1        0.1811
      6 O          18.1346   72.0772   -5.3037 O.3     1  UNL1       -0.3308
      7 O          16.7376   70.7287   -3.0186 O.3     1  UNL1       -0.3794
      8 O          16.9401   68.7260   -4.8581 O.3     1  UNL1       -0.3779
      9 C          18.0312   70.4716   -3.5647 C.3     1  UNL1        0.1713
     10 C          17.9077   69.7546   -4.8926 C.3     1  UNL1        0.1895
     11 C          18.6401   71.8051   -3.9779 C.3     1  UNL1        0.1764
     12 C          17.5224   70.8876   -5.8285 C.3     1  UNL1        0.2383
     13 H          16.8654   71.2222   -2.1906 H       1  UNL1        0.2105
     14 H          17.2028   68.1002   -4.1613 H       1  UNL1        0.2106
     15 O          15.8409   70.6511   -8.0850 O.2     1  UNL1       -0.2464
     16 O          19.4251   70.0683  -10.9227 O.2     1  UNL1       -0.2670
     17 N          17.9892   70.6743   -7.1686 N.ar    1  UNL1       -0.2551
     18 N          17.6268   70.3605   -9.4965 N.ar    1  UNL1       -0.2743
     19 C          17.0617   70.5688   -8.2314 C.ar    1  UNL1        0.3323
     20 C          19.3530   70.5717   -7.4195 C.ar    1  UNL1        0.0869
     21 C          19.8760   70.3736   -8.6315 C.ar    1  UNL1        0.0795
     22 C          18.9760   70.2513   -9.7954 C.ar    1  UNL1        0.2626
     23 H          16.9788   70.2809  -10.2756 H       1  UNL1        0.1734
     24 O          22.0378   73.6739   -3.7988 O.3     1  UNL1       -0.2703
     25 P          23.3724   73.2860   -2.9737 P.3     1  UNL1        0.2208
     26 O          24.2968   74.6049   -3.1219 O.3     1  UNL1       -0.4371
     27 O          24.0296   72.0141   -3.4281 O.2     1  UNL1       -0.5170
     28 O          22.9108   73.2823   -1.4275 O.3     1  UNL1       -0.2858
     29 O          23.6739   74.5967    0.3862 O.3     1  UNL1       -0.3226
     30 O          22.6876   71.0185    2.2578 O.3     1  UNL1       -0.3794
     31 O          24.0386   71.0153   -0.3269 O.3     1  UNL1       -0.3775
     32 O          23.4258   73.5594    3.0510 O.3     1  UNL1       -0.3792
     33 C          22.6076   72.0875    1.3191 C.3     1  UNL1        0.1718
     34 C          23.8955   72.1706    0.4928 C.3     1  UNL1        0.1968
     35 C          22.3873   73.3984    2.0791 C.3     1  UNL1        0.1723
     36 C          23.8896   73.4189   -0.3982 C.3     1  UNL1        0.2706
     37 C          22.4409   74.5722    1.1037 C.3     1  UNL1        0.1830
     38 H          21.8544   71.0051    2.7590 H       1  UNL1        0.2105
     39 H          24.8600   71.1172   -0.8366 H       1  UNL1        0.2106
     40 H          24.2469   73.7989    2.5889 H       1  UNL1        0.2106
     41 O          21.5157   75.7993    2.8763 O.co2   1  UNL1       -0.5466
     42 O          22.9701   76.8938    1.5037 O.co2   1  UNL1       -0.5466
     43 C          22.3597   75.8828    1.8197 C.2     1  UNL1        0.0799
@<TRIPOS>UNITY_ATOM_ATTR
41 1
charge -1
@<TRIPOS>BOND
     1     1     4    1
     2     1    24    1
     3     1     2    1
     4     1     3    2
     5    25    28    1
     6    25    24    1
     7    25    26    1
     8    25    27    2
     9     6    11    1
    10     6    12    1
    11    29    36    1
    12    29    37    1
    13     7     9    1
    14     7    13    1
    15     8    10    1
    16     8    14    1
    17     4     5    1
    18    28    36    1
    19    30    33    1
    20    30    38    1
    21    31    34    1
    22    31    39    1
    23    32    35    1
    24    32    40    1
    25    41    43   ar
    26    15    19    2
    27    42    43   ar
    28    16    22    2
    29    17    12    1
    30    17    19   ar
    31    17    20   ar
    32    18    19   ar
    33    18    22   ar
    34    18    23    1
    35     9    10    1
    36     9    11    1
    37    10    12    1
    38    11     5    1
    39    33    34    1
    40    33    35    1
    41    34    36    1
    42    35    37    1
    43    37    43    1
    44    20    21   ar
    45    21    22   ar
@<TRIPOS>MOLECULE
UDP-glaA
 43 45 0 0 0
SMALL
GASTEIGER

@<TRIPOS>ATOM
      1 P          23.3964   72.2448   -3.5808 P.3     1  UNL1        0.2189
      2 O          24.1393   70.8953   -3.0864 O.3     1  UNL1       -0.4371
      3 O          24.2155   73.1258   -4.4780 O.2     1  UNL1       -0.5170
      4 O          22.8756   72.9274   -2.2102 O.3     1  UNL1       -0.3112
      5 C          21.9897   74.0306   -2.2969 C.3     1  UNL1        0.1811
      6 O          21.1224   72.6485   -0.5329 O.3     1  UNL1       -0.3308
      7 O          19.2685   74.9231    0.0840 O.3     1  UNL1       -0.3794
      8 O          21.2019   75.1978    1.9872 O.3     1  UNL1       -0.3779
      9 C          20.6240   74.9583   -0.3622 C.3     1  UNL1        0.1713
     10 C          21.5587   74.5806    0.7676 C.3     1  UNL1        0.1895
     11 C          20.8263   73.8090   -1.3409 C.3     1  UNL1        0.1764
     12 C          21.4068   73.0696    0.8114 C.3     1  UNL1        0.2383
     13 H          18.7061   75.1330   -0.6810 H       1  UNL1        0.2105
     14 H          21.2187   76.1598    1.8443 H       1  UNL1        0.2106
     15 O          21.6428   70.2817    1.1953 O.2     1  UNL1       -0.2464
     16 O          26.0297   70.6562    2.5567 O.2     1  UNL1       -0.2670
     17 N          22.5988   72.4117    1.2647 N.ar    1  UNL1       -0.2551
     18 N          23.8270   70.4701    1.8735 N.ar    1  UNL1       -0.2743
     19 C          22.6125   71.0065    1.4256 C.ar    1  UNL1        0.3323
     20 C          23.7383   73.1576    1.5452 C.ar    1  UNL1        0.0869
     21 C          24.8887   72.6313    1.9710 C.ar    1  UNL1        0.0795
     22 C          24.9867   71.1712    2.1658 C.ar    1  UNL1        0.2626
     23 H          23.8599   69.4617    1.9969 H       1  UNL1        0.1734
     24 O          22.0340   71.6847   -4.2480 O.3     1  UNL1       -0.2703
     25 P          21.1333   72.2593   -5.4610 P.3     1  UNL1        0.2208
     26 O          21.8382   71.6335   -6.7753 O.3     1  UNL1       -0.4371
     27 O          21.0063   73.7557   -5.4786 O.2     1  UNL1       -0.5170
     28 O          19.7299   71.4726   -5.3364 O.3     1  UNL1       -0.2858
     29 O          18.5984   71.7688   -7.3935 O.3     1  UNL1       -0.3226
     30 O          15.9413   69.3751   -5.2748 O.3     1  UNL1       -0.3794
     31 O          17.3434   71.5632   -3.9511 O.3     1  UNL1       -0.3775
     32 O          16.1726   70.3086   -7.8642 O.3     1  UNL1       -0.3792
     33 C          17.1925   69.8967   -5.7136 C.3     1  UNL1        0.1718
     34 C          17.3040   71.3843   -5.3629 C.3     1  UNL1        0.1968
     35 C          17.3047   69.7058   -7.2287 C.3     1  UNL1        0.1723
     36 C          18.5684   71.9947   -5.9803 C.3     1  UNL1        0.2706
     37 C          18.5739   70.3847   -7.7389 C.3     1  UNL1        0.1830
     38 H          15.9136   68.4344   -5.5192 H       1  UNL1        0.2105
     39 H          17.4235   72.5164   -3.7783 H       1  UNL1        0.2106
     40 H          16.2794   71.2744   -7.8341 H       1  UNL1        0.2106
     41 O          19.7390   71.0241   -9.6722 O.co2   1  UNL1       -0.5466
     42 O          17.8683   69.7533   -9.9600 O.co2   1  UNL1       -0.5466
     43 C          18.6587   70.3354   -9.2313 C.2     1  UNL1        0.0799
@<TRIPOS>UNITY_ATOM_ATTR
41 1
charge -1
@<TRIPOS>BOND
     1     1     4    1
     2     1    24    1
     3     1     2    1
     4     1     3    2
     5    25    28    1
     6    25    24    1
     7    25    26    1
     8    25    27    2
     9     6    11    1
    10     6    12    1
    11    29    36    1
    12    29    37    1
    13     7     9    1
    14     7    13    1
    15     8    10    1
    16     8    14    1
    17     4     5    1
    18    28    36    1
    19    30    33    1
    20    30    38    1
    21    31    34    1
    22    31    39    1
    23    32    35    1
    24    32    40    1
    25    41    43   ar
    26    15    19    2
    27    42    43   ar
    28    16    22    2
    29    17    12    1
    30    17    19   ar
    31    17    20   ar
    32    18    19   ar
    33    18    22   ar
    34    18    23    1
    35     9    10    1
    36     9    11    1
    37    10    12    1
    38    11     5    1
    39    33    34    1
    40    33    35    1
    41    34    36    1
    42    35    37    1
    43    37    43    1
    44    20    21   ar
    45    21    22   ar
@<TRIPOS>MOLECULE
UDP-glaA
 43 45 0 0 0
SMALL
GASTEIGER

@<TRIPOS>ATOM
      1 P          20.1954   71.2982   -1.1589 P.3     1  UNL1        0.2189
      2 O          20.8871   70.4761    0.0507 O.3     1  UNL1       -0.4371
      3 O          19.3916   72.4922   -0.7343 O.2     1  UNL1       -0.5170
      4 O          19.3897   70.1672   -1.9880 O.3     1  UNL1       -0.3112
      5 C          19.1107   70.4015   -3.3578 C.3     1  UNL1        0.1811
      6 O          17.4437   71.3976   -4.7732 O.3     1  UNL1       -0.3308
      7 O          15.4353   69.8208   -3.2011 O.3     1  UNL1       -0.3794
      8 O          15.7037   68.3425   -5.4767 O.3     1  UNL1       -0.3779
      9 C          16.7596   69.4603   -3.5935 C.3     1  UNL1        0.1713
     10 C          16.7995   69.1370   -5.0722 C.3     1  UNL1        0.1895
     11 C          17.6285   70.7088   -3.5168 C.3     1  UNL1        0.1764
     12 C          16.7802   70.5208   -5.6987 C.3     1  UNL1        0.2383
     13 H          15.4664   70.0566   -2.2582 H       1  UNL1        0.2105
     14 H          15.7268   67.5234   -4.9526 H       1  UNL1        0.2106
     15 O          15.5011   70.5945   -8.2154 O.2     1  UNL1       -0.2464
     16 O          19.5242   70.6769  -10.4620 O.2     1  UNL1       -0.2670
     17 N          17.4686   70.5625   -6.9571 N.ar    1  UNL1       -0.2551
     18 N          17.5053   70.6349   -9.3325 N.ar    1  UNL1       -0.2743
     19 C          16.7324   70.5965   -8.1644 C.ar    1  UNL1        0.3323
     20 C          18.8588   70.5692   -6.9868 C.ar    1  UNL1        0.0869
     21 C          19.5812   70.6065   -8.1087 C.ar    1  UNL1        0.0795
     22 C          18.8892   70.6427   -9.4124 C.ar    1  UNL1        0.2626
     23 H          16.9972   70.6592  -10.2124 H       1  UNL1        0.1734
     24 O          21.4450   71.6373   -2.1276 O.3     1  UNL1       -0.2703
     25 P          22.4190   72.9258   -2.1901 P.3     1  UNL1        0.2208
     26 O          21.4896   74.0607   -2.8715 O.3     1  UNL1       -0.4371
     27 O          23.7196   72.6809   -2.9001 O.2     1  UNL1       -0.5170
     28 O          22.5760   73.3946   -0.6540 O.3     1  UNL1       -0.2858
     29 O          24.0476   74.5739    0.7753 O.3     1  UNL1       -0.3226
     30 O          23.5304   70.9924    2.8210 O.3     1  UNL1       -0.3794
     31 O          23.8441   71.0106   -0.0785 O.3     1  UNL1       -0.3775
     32 O          24.7045   73.4405    3.3292 O.3     1  UNL1       -0.3792
     33 C          23.1992   72.1043    1.9938 C.3     1  UNL1        0.1718
     34 C          24.1005   72.1360    0.7549 C.3     1  UNL1        0.1968
     35 C          23.3745   73.3927    2.8023 C.3     1  UNL1        0.1723
     36 C          23.8696   73.4196   -0.0522 C.3     1  UNL1        0.2706
     37 C          23.1622   74.6017    1.8937 C.3     1  UNL1        0.1830
     38 H          22.9382   71.0137    3.5920 H       1  UNL1        0.2105
     39 H          24.4292   71.0787   -0.8517 H       1  UNL1        0.2106
     40 H          25.3175   73.6439    2.6026 H       1  UNL1        0.2106
     41 O          24.7390   76.2566    2.4214 O.co2   1  UNL1       -0.5466
     42 O          22.6406   76.5123    3.2748 O.co2   1  UNL1       -0.5466
     43 C          23.4507   75.8823    2.6105 C.2     1  UNL1        0.0799
@<TRIPOS>UNITY_ATOM_ATTR
41 1
charge -1
@<TRIPOS>BOND
     1     1     4    1
     2     1    24    1
     3     1     2    1
     4     1     3    2
     5    25    28    1
     6    25    24    1
     7    25    26    1
     8    25    27    2
     9     6    11    1
    10     6    12    1
    11    29    36    1
    12    29    37    1
    13     7     9    1
    14     7    13    1
    15     8    10    1
    16     8    14    1
    17     4     5    1
    18    28    36    1
    19    30    33    1
    20    30    38    1
    21    31    34    1
    22    31    39    1
    23    32    35    1
    24    32    40    1
    25    41    43   ar
    26    15    19    2
    27    42    43   ar
    28    16    22    2
    29    17    12    1
    30    17    19   ar
    31    17    20   ar
    32    18    19   ar
    33    18    22   ar
    34    18    23    1
    35     9    10    1
    36     9    11    1
    37    10    12    1
    38    11     5    1
    39    33    34    1
    40    33    35    1
    41    34    36    1
    42    35    37    1
    43    37    43    1
    44    20    21   ar
    45    21    22   ar
@<TRIPOS>MOLECULE
UDP-glaA
 43 45 0 0 0
SMALL
GASTEIGER

@<TRIPOS>ATOM
      1 P          23.4815   72.4252   -3.5175 P.3     1  UNL1        0.2189
      2 O          24.1068   70.9469   -3.3149 O.3     1  UNL1       -0.4371
      3 O          24.4620   73.4722   -3.9585 O.2     1  UNL1       -0.5170
      4 O          22.7182   72.7200   -2.1225 O.3     1  UNL1       -0.3112
      5 C          23.4736   72.7166   -0.9231 C.3     1  UNL1        0.1811
      6 O          24.4574   71.0321    0.4801 O.3     1  UNL1       -0.3308
      7 O          21.6507   70.2062    1.1374 O.3     1  UNL1       -0.3794
      8 O          22.3672   71.6723    3.3222 O.3     1  UNL1       -0.3779
      9 C          22.1765   71.5126    0.9037 C.3     1  UNL1        0.1713
     10 C          22.9956   71.9694    2.0924 C.3     1  UNL1        0.1895
     11 C          23.2324   71.4054   -0.1887 C.3     1  UNL1        0.1764
     12 C          24.2910   71.1999    1.8977 C.3     1  UNL1        0.2383
     13 H          21.1679   69.9405    0.3363 H       1  UNL1        0.2105
     14 H          21.5002   72.1132    3.3218 H       1  UNL1        0.2106
     15 O          24.2856   73.9257    2.6362 O.2     1  UNL1       -0.2464
     16 O          28.7164   73.7820    3.8956 O.2     1  UNL1       -0.2670
     17 N          25.4287   71.9002    2.4218 N.ar    1  UNL1       -0.2551
     18 N          26.4921   73.8525    3.2624 N.ar    1  UNL1       -0.2743
     19 C          25.3210   73.2692    2.7609 C.ar    1  UNL1        0.3323
     20 C          26.6351   71.2309    2.5950 C.ar    1  UNL1        0.0869
     21 C          27.7427   71.8010    3.0748 C.ar    1  UNL1        0.0795
     22 C          27.7152   73.2280    3.4522 C.ar    1  UNL1        0.2626
     23 H          26.4383   74.8362    3.5123 H       1  UNL1        0.1734
     24 O          22.2640   72.1653   -4.5497 O.3     1  UNL1       -0.2703
     25 P          20.8258   71.4590   -4.3366 P.3     1  UNL1        0.2208
     26 O          20.0749   72.4508   -3.3028 O.3     1  UNL1       -0.4371
     27 O          20.9028   70.0303   -3.8800 O.2     1  UNL1       -0.5170
     28 O          20.0548   71.6703   -5.7383 O.3     1  UNL1       -0.2858
     29 O          18.3144   70.0944   -5.4435 O.3     1  UNL1       -0.3226
     30 O          16.9524   72.2982   -8.6942 O.3     1  UNL1       -0.3794
     31 O          19.7646   71.5554   -8.4815 O.3     1  UNL1       -0.3775
     32 O          15.9334   70.3461   -7.0266 O.3     1  UNL1       -0.3792
     33 C          17.6111   72.0292   -7.4597 C.3     1  UNL1        0.1718
     34 C          18.7349   71.0079   -7.6650 C.3     1  UNL1        0.1968
     35 C          16.5864   71.4867   -6.4596 C.3     1  UNL1        0.1723
     36 C          19.3356   70.5833   -6.3192 C.3     1  UNL1        0.2706
     37 C          17.2973   71.0590   -5.1775 C.3     1  UNL1        0.1830
     38 H          16.2492   72.9459   -8.5165 H       1  UNL1        0.2105
     39 H          20.4558   70.8784   -8.5754 H       1  UNL1        0.2106
     40 H          16.5537   69.5976   -7.0151 H       1  UNL1        0.2106
     41 O          16.3530   69.0591   -4.3949 O.co2   1  UNL1       -0.5466
     42 O          15.6740   70.9903   -3.3915 O.co2   1  UNL1       -0.5466
     43 C          16.3531   70.4028   -4.2210 C.2     1  UNL1        0.0799
@<TRIPOS>UNITY_ATOM_ATTR
41 1
charge -1
@<TRIPOS>BOND
     1     1     4    1
     2     1    24    1
     3     1     2    1
     4     1     3    2
     5    25    28    1
     6    25    24    1
     7    25    26    1
     8    25    27    2
     9     6    11    1
    10     6    12    1
    11    29    36    1
    12    29    37    1
    13     7     9    1
    14     7    13    1
    15     8    10    1
    16     8    14    1
    17     4     5    1
    18    28    36    1
    19    30    33    1
    20    30    38    1
    21    31    34    1
    22    31    39    1
    23    32    35    1
    24    32    40    1
    25    41    43   ar
    26    15    19    2
    27    42    43   ar
    28    16    22    2
    29    17    12    1
    30    17    19   ar
    31    17    20   ar
    32    18    19   ar
    33    18    22   ar
    34    18    23    1
    35     9    10    1
    36     9    11    1
    37    10    12    1
    38    11     5    1
    39    33    34    1
    40    33    35    1
    41    34    36    1
    42    35    37    1
    43    37    43    1
    44    20    21   ar
    45    21    22   ar
@<TRIPOS>MOLECULE
UDP-glaA
 43 45 0 0 0
SMALL
GASTEIGER

@<TRIPOS>ATOM
      1 P          22.0365   73.2421   -7.3849 P.3     1  UNL1        0.2189
      2 O          21.0453   74.4808   -7.0678 O.3     1  UNL1       -0.4371
      3 O          23.2790   73.6042   -8.1446 O.2     1  UNL1       -0.5170
      4 O          21.0775   72.1456   -8.0874 O.3     1  UNL1       -0.3112
      5 C          20.6285   71.0447   -7.3156 C.3     1  UNL1        0.1811
      6 O          18.7574   69.5405   -7.2129 O.3     1  UNL1       -0.3308
      7 O          18.2157   70.3176  -10.0579 O.3     1  UNL1       -0.3794
      8 O          16.3977   71.8087   -8.6768 O.3     1  UNL1       -0.3779
      9 C          18.7081   71.1158   -8.9816 C.3     1  UNL1        0.1713
     10 C          17.5896   71.4402   -8.0140 C.3     1  UNL1        0.1895
     11 C          19.6227   70.2445   -8.1309 C.3     1  UNL1        0.1764
     12 C          17.4508   70.1381   -7.2437 C.3     1  UNL1        0.2383
     13 H          18.9727   70.1026  -10.6291 H       1  UNL1        0.2105
     14 H          16.5981   72.5827   -9.2308 H       1  UNL1        0.2106
     15 O          16.2279   68.1523   -5.6511 O.2     1  UNL1       -0.2464
     16 O          15.7553   71.0398   -2.0906 O.2     1  UNL1       -0.2670
     17 N          16.9990   70.3433   -5.8972 N.ar    1  UNL1       -0.2551
     18 N          15.9929   69.5916   -3.8793 N.ar    1  UNL1       -0.2743
     19 C          16.3968   69.2802   -5.1843 C.ar    1  UNL1        0.3323
     20 C          17.1541   71.5874   -5.2960 C.ar    1  UNL1        0.0869
     21 C          16.7642   71.8683   -4.0506 C.ar    1  UNL1        0.0795
     22 C          16.1256   70.8137   -3.2385 C.ar    1  UNL1        0.2626
     23 H          15.5569   68.8427   -3.3482 H       1  UNL1        0.1734
     24 O          22.3027   72.6074   -5.9216 O.3     1  UNL1       -0.2703
     25 P          23.1276   73.1762   -4.6532 P.3     1  UNL1        0.2208
     26 O          23.7649   74.5536   -5.2125 O.3     1  UNL1       -0.4371
     27 O          24.1321   72.2124   -4.0893 O.2     1  UNL1       -0.5170
     28 O          21.9939   73.6464   -3.6056 O.3     1  UNL1       -0.2858
     29 O          20.4191   72.0232   -2.9096 O.3     1  UNL1       -0.3226
     30 O          18.6456   75.5601   -1.6351 O.3     1  UNL1       -0.3794
     31 O          19.9702   75.4179   -4.2295 O.3     1  UNL1       -0.3775
     32 O          18.1830   72.8559   -1.3142 O.3     1  UNL1       -0.3792
     33 C          19.6866   74.6380   -1.9453 C.3     1  UNL1        0.1718
     34 C          19.6565   74.2791   -3.4348 C.3     1  UNL1        0.1968
     35 C          19.4990   73.3762   -1.0985 C.3     1  UNL1        0.1723
     36 C          20.6594   73.1608   -3.7445 C.3     1  UNL1        0.2706
     37 C          20.5196   72.3204   -1.5177 C.3     1  UNL1        0.1830
     38 H          18.7012   75.7565   -0.6844 H       1  UNL1        0.2105
     39 H          19.9482   75.1407   -5.1609 H       1  UNL1        0.2106
     40 H          18.1546   72.4427   -2.1937 H       1  UNL1        0.2106
     41 O          19.3689   70.2767   -1.4604 O.co2   1  UNL1       -0.5466
     42 O          20.8544   70.6793    0.2214 O.co2   1  UNL1       -0.5466
     43 C          20.2901   71.0247   -0.8066 C.2     1  UNL1        0.0799
@<TRIPOS>UNITY_ATOM_ATTR
41 1
charge -1
@<TRIPOS>BOND
     1     1     4    1
     2     1    24    1
     3     1     2    1
     4     1     3    2
     5    25    28    1
     6    25    24    1
     7    25    26    1
     8    25    27    2
     9     6    11    1
    10     6    12    1
    11    29    36    1
    12    29    37    1
    13     7     9    1
    14     7    13    1
    15     8    10    1
    16     8    14    1
    17     4     5    1
    18    28    36    1
    19    30    33    1
    20    30    38    1
    21    31    34    1
    22    31    39    1
    23    32    35    1
    24    32    40    1
    25    41    43   ar
    26    15    19    2
    27    42    43   ar
    28    16    22    2
    29    17    12    1
    30    17    19   ar
    31    17    20   ar
    32    18    19   ar
    33    18    22   ar
    34    18    23    1
    35     9    10    1
    36     9    11    1
    37    10    12    1
    38    11     5    1
    39    33    34    1
    40    33    35    1
    41    34    36    1
    42    35    37    1
    43    37    43    1
    44    20    21   ar
    45    21    22   ar
