@<TRIPOS>MOLECULE
UDP-glaA
 43 45 0 0 0
SMALL
GASTEIGER

@<TRIPOS>ATOM
      1 P          22.2202   71.6089   -3.2033 P.3     1  UNL1        0.2189
      2 O          21.6854   73.1290   -3.0594 O.3     1  UNL1       -0.4371
      3 O          23.6734   71.4798   -3.5546 O.2     1  UNL1       -0.5170
      4 O          21.1830   70.9275   -4.2403 O.3     1  UNL1       -0.3112
      5 C          20.2669   69.9645   -3.7478 C.3     1  UNL1        0.1811
      6 O          18.6236   71.3608   -4.8082 O.3     1  UNL1       -0.3308
      7 O          16.6699   70.2470   -2.8248 O.3     1  UNL1       -0.3794
      8 O          16.1141   68.8140   -5.0772 O.3     1  UNL1       -0.3779
      9 C          17.7644   69.6011   -3.4748 C.3     1  UNL1        0.1713
     10 C          17.4237   69.3208   -4.9232 C.3     1  UNL1        0.1895
     11 C          18.8968   70.6115   -3.6035 C.3     1  UNL1        0.1764
     12 C          17.5990   70.6892   -5.5594 C.3     1  UNL1        0.2383
     13 H          16.9479   70.4414   -1.9134 H       1  UNL1        0.2105
     14 H          16.0529   67.9969   -4.5531 H       1  UNL1        0.2106
     15 O          15.8296   70.2965   -7.7251 O.2     1  UNL1       -0.2464
     16 O          19.2700   70.3880  -10.7900 O.2     1  UNL1       -0.2670
     17 N          18.0049   70.6071   -6.9333 N.ar    1  UNL1       -0.2551
     18 N          17.5440   70.3418   -9.2498 N.ar    1  UNL1       -0.2743
     19 C          17.0370   70.4073   -7.9453 C.ar    1  UNL1        0.3323
     20 C          19.3497   70.7240   -7.2670 C.ar    1  UNL1        0.0869
     21 C          19.8172   70.6599   -8.5156 C.ar    1  UNL1        0.0795
     22 C          18.8723   70.4521   -9.6308 C.ar    1  UNL1        0.2626
     23 H          16.8663   70.1981   -9.9936 H       1  UNL1        0.1734
     24 O          21.8078   70.9443   -1.7879 O.3     1  UNL1       -0.2703
     25 P          21.1585   71.5967   -0.4592 P.3     1  UNL1        0.2208
     26 O          21.1270   70.3609    0.5837 O.3     1  UNL1       -0.4371
     27 O          19.8262   72.2531   -0.6833 O.2     1  UNL1       -0.5170
     28 O          22.3003   72.5838    0.1115 O.3     1  UNL1       -0.2858
     29 O          23.3060   71.8281    2.1157 O.3     1  UNL1       -0.3226
     30 O          24.8316   75.6797    1.7742 O.3     1  UNL1       -0.3794
     31 O          22.0376   75.1314    1.1428 O.3     1  UNL1       -0.3775
     32 O          25.2783   73.4816    3.3863 O.3     1  UNL1       -0.3792
     33 C          24.3471   74.4060    1.3582 C.3     1  UNL1        0.1718
     34 C          22.8958   74.2124    1.8104 C.3     1  UNL1        0.1968
     35 C          25.2348   73.3161    1.9652 C.3     1  UNL1        0.1723
     36 C          22.4221   72.7830    1.5192 C.3     1  UNL1        0.2706
     37 C          24.6492   71.9417    1.6483 C.3     1  UNL1        0.1830
     38 H          25.7517   75.7575    1.4694 H       1  UNL1        0.2105
     39 H          21.1315   74.9652    1.4530 H       1  UNL1        0.2106
     40 H          24.4266   73.1945    3.7570 H       1  UNL1        0.2106
     41 O          26.7377   71.1306    2.3440 O.co2   1  UNL1       -0.5466
     42 O          24.9152   69.8450    2.8158 O.co2   1  UNL1       -0.5466
     43 C          25.4121   70.8512    2.3309 C.2     1  UNL1        0.0799
@<TRIPOS>UNITY_ATOM_ATTR
41 1
charge -1
@<TRIPOS>BOND
     1     1     4    1
     2     1    24    1
     3     1     2    1
     4     1     3    2
     5    25    28    1
     6    25    24    1
     7    25    26    1
     8    25    27    2
     9     6    11    1
    10     6    12    1
    11    29    36    1
    12    29    37    1
    13     7     9    1
    14     7    13    1
    15     8    10    1
    16     8    14    1
    17     4     5    1
    18    28    36    1
    19    30    33    1
    20    30    38    1
    21    31    34    1
    22    31    39    1
    23    32    35    1
    24    32    40    1
    25    41    43   ar
    26    15    19    2
    27    42    43   ar
    28    16    22    2
    29    17    12    1
    30    17    19   ar
    31    17    20   ar
    32    18    19   ar
    33    18    22   ar
    34    18    23    1
    35     9    10    1
    36     9    11    1
    37    10    12    1
    38    11     5    1
    39    33    34    1
    40    33    35    1
    41    34    36    1
    42    35    37    1
    43    37    43    1
    44    20    21   ar
    45    21    22   ar
@<TRIPOS>MOLECULE
UDP-glaA
 43 45 0 0 0
SMALL
GASTEIGER

@<TRIPOS>ATOM
      1 P          21.6965   72.4577   -4.7728 P.3     1  UNL1        0.2189
      2 O          20.8632   73.8410   -4.8695 O.3     1  UNL1       -0.4371
      3 O          22.8687   72.3584   -5.7046 O.2     1  UNL1       -0.5170
      4 O          20.5683   71.3108   -4.9377 O.3     1  UNL1       -0.3112
      5 C          19.9402   70.8057   -3.7716 C.3     1  UNL1        0.1811
      6 O          18.1784   71.8229   -5.0506 O.3     1  UNL1       -0.3308
      7 O          16.2915   70.6372   -3.0444 O.3     1  UNL1       -0.3794
      8 O          16.0848   68.9137   -5.1474 O.3     1  UNL1       -0.3779
      9 C          17.5049   70.1000   -3.5705 C.3     1  UNL1        0.1713
     10 C          17.2957   69.6247   -4.9928 C.3     1  UNL1        0.1895
     11 C          18.4847   71.2506   -3.7599 C.3     1  UNL1        0.1764
     12 C          17.3086   70.9314   -5.7676 C.3     1  UNL1        0.2383
     13 H          16.4834   70.9635   -2.1487 H       1  UNL1        0.2105
     14 H          16.1114   68.1547   -4.5396 H       1  UNL1        0.2106
     15 O          15.6862   70.3926   -8.0155 O.2     1  UNL1       -0.2464
     16 O          19.3184   70.3329  -10.8514 O.2     1  UNL1       -0.2670
     17 N          17.8036   70.7709   -7.1049 N.ar    1  UNL1       -0.2551
     18 N          17.4960   70.3627   -9.4261 N.ar    1  UNL1       -0.2743
     19 C          16.9048   70.5015   -8.1634 C.ar    1  UNL1        0.3323
     20 C          19.1666   70.8804   -7.3574 C.ar    1  UNL1        0.0869
     21 C          19.7148   70.7460   -8.5670 C.ar    1  UNL1        0.0795
     22 C          18.8457   70.4627   -9.7263 C.ar    1  UNL1        0.2626
     23 H          16.8690   70.1681  -10.2020 H       1  UNL1        0.1734
     24 O          22.0750   72.3718   -3.2029 O.3     1  UNL1       -0.2703
     25 P          23.4960   72.1499   -2.4654 P.3     1  UNL1        0.2208
     26 O          24.3058   73.5086   -2.8037 O.3     1  UNL1       -0.4371
     27 O          24.2071   70.8887   -2.8649 O.2     1  UNL1       -0.5170
     28 O          23.1605   72.2558   -0.8906 O.3     1  UNL1       -0.2858
     29 O          24.5324   71.2039    0.7252 O.3     1  UNL1       -0.3226
     30 O          21.0010   71.7990    2.8357 O.3     1  UNL1       -0.3794
     31 O          20.9354   70.9224    0.0548 O.3     1  UNL1       -0.3775
     32 O          23.5696   70.9670    3.4187 O.3     1  UNL1       -0.3792
     33 C          22.0420   72.0566    1.8975 C.3     1  UNL1        0.1718
     34 C          22.1123   70.9349    0.8558 C.3     1  UNL1        0.1968
     35 C          23.3722   72.1576    2.6491 C.3     1  UNL1        0.1723
     36 C          23.3346   71.1136   -0.0533 C.3     1  UNL1        0.2706
     37 C          24.5181   72.2915    1.6485 C.3     1  UNL1        0.1830
     38 H          20.9950   72.5311    3.4756 H       1  UNL1        0.2105
     39 H          21.0295   70.2046   -0.5938 H       1  UNL1        0.2106
     40 H          23.8028   70.2429    2.8133 H       1  UNL1        0.2106
     41 O          26.3643   71.0106    2.3230 O.co2   1  UNL1       -0.5466
     42 O          26.4011   73.2327    2.8311 O.co2   1  UNL1       -0.5466
     43 C          25.8479   72.2632    2.3325 C.2     1  UNL1        0.0799
@<TRIPOS>UNITY_ATOM_ATTR
41 1
charge -1
@<TRIPOS>BOND
     1     1     4    1
     2     1    24    1
     3     1     2    1
     4     1     3    2
     5    25    28    1
     6    25    24    1
     7    25    26    1
     8    25    27    2
     9     6    11    1
    10     6    12    1
    11    29    36    1
    12    29    37    1
    13     7     9    1
    14     7    13    1
    15     8    10    1
    16     8    14    1
    17     4     5    1
    18    28    36    1
    19    30    33    1
    20    30    38    1
    21    31    34    1
    22    31    39    1
    23    32    35    1
    24    32    40    1
    25    41    43   ar
    26    15    19    2
    27    42    43   ar
    28    16    22    2
    29    17    12    1
    30    17    19   ar
    31    17    20   ar
    32    18    19   ar
    33    18    22   ar
    34    18    23    1
    35     9    10    1
    36     9    11    1
    37    10    12    1
    38    11     5    1
    39    33    34    1
    40    33    35    1
    41    34    36    1
    42    35    37    1
    43    37    43    1
    44    20    21   ar
    45    21    22   ar
@<TRIPOS>MOLECULE
UDP-glaA
 43 45 0 0 0
SMALL
GASTEIGER

@<TRIPOS>ATOM
      1 P          22.4879   71.7523   -3.2244 P.3     1  UNL1        0.2189
      2 O          21.8572   72.4033   -4.5644 O.3     1  UNL1       -0.4371
      3 O          23.9042   71.2747   -3.3587 O.2     1  UNL1       -0.5170
      4 O          21.4064   70.6311   -2.7896 O.3     1  UNL1       -0.3112
      5 C          20.5519   70.0925   -3.7841 C.3     1  UNL1        0.1811
      6 O          18.7684   71.3610   -4.7763 O.3     1  UNL1       -0.3308
      7 O          16.9882   70.1269   -2.7028 O.3     1  UNL1       -0.3794
      8 O          16.4366   68.6411   -4.9218 O.3     1  UNL1       -0.3779
      9 C          18.0960   69.5551   -3.3981 C.3     1  UNL1        0.1713
     10 C          17.7124   69.2404   -4.8286 C.3     1  UNL1        0.1895
     11 C          19.1470   70.6420   -3.5817 C.3     1  UNL1        0.1764
     12 C          17.7618   70.6129   -5.4780 C.3     1  UNL1        0.2383
     13 H          17.2916   70.3474   -1.8056 H       1  UNL1        0.2105
     14 H          16.4568   67.8257   -4.3919 H       1  UNL1        0.2106
     15 O          15.9142   70.1816   -7.5698 O.2     1  UNL1       -0.2464
     16 O          19.2182   70.3857  -10.7761 O.2     1  UNL1       -0.2670
     17 N          18.1115   70.5493   -6.8684 N.ar    1  UNL1       -0.2551
     18 N          17.5607   70.2830   -9.1650 N.ar    1  UNL1       -0.2743
     19 C          17.1077   70.3275   -7.8399 C.ar    1  UNL1        0.3323
     20 C          19.4372   70.7058   -7.2575 C.ar    1  UNL1        0.0869
     21 C          19.8531   70.6613   -8.5251 C.ar    1  UNL1        0.0795
     22 C          18.8682   70.4327   -9.6009 C.ar    1  UNL1        0.2626
     23 H          16.8565   70.1240   -9.8805 H       1  UNL1        0.1734
     24 O          22.2706   72.9138   -2.1204 O.3     1  UNL1       -0.2703
     25 P          22.4857   72.9076   -0.5184 P.3     1  UNL1        0.2208
     26 O          21.0578   72.3990    0.0458 O.3     1  UNL1       -0.4371
     27 O          22.9433   74.2218    0.0467 O.2     1  UNL1       -0.5170
     28 O          23.4941   71.6775   -0.2460 O.3     1  UNL1       -0.2858
     29 O          24.6199   72.2706    1.7490 O.3     1  UNL1       -0.3226
     30 O          20.6500   72.1937    2.9792 O.3     1  UNL1       -0.3794
     31 O          21.6802   70.1516    1.1697 O.3     1  UNL1       -0.3775
     32 O          23.0689   72.9770    4.0586 O.3     1  UNL1       -0.3792
     33 C          21.7639   72.3900    2.1125 C.3     1  UNL1        0.1718
     34 C          22.5033   71.0673    1.8845 C.3     1  UNL1        0.1968
     35 C          22.7084   73.4160    2.7447 C.3     1  UNL1        0.1723
     36 C          23.7981   71.2978    1.0954 C.3     1  UNL1        0.2706
     37 C          23.9760   73.5346    1.9012 C.3     1  UNL1        0.1830
     38 H          20.2145   73.0552    3.0969 H       1  UNL1        0.2105
     39 H          22.1924   69.3355    1.0412 H       1  UNL1        0.2106
     40 H          23.6956   72.2383    3.9764 H       1  UNL1        0.2106
     41 O          24.8604   74.3899    3.8988 O.co2   1  UNL1       -0.5466
     42 O          25.8091   75.1052    1.9532 O.co2   1  UNL1       -0.5466
     43 C          24.9832   74.4298    2.5501 C.2     1  UNL1        0.0799
@<TRIPOS>UNITY_ATOM_ATTR
41 1
charge -1
@<TRIPOS>BOND
     1     1     4    1
     2     1    24    1
     3     1     2    1
     4     1     3    2
     5    25    28    1
     6    25    24    1
     7    25    26    1
     8    25    27    2
     9     6    11    1
    10     6    12    1
    11    29    36    1
    12    29    37    1
    13     7     9    1
    14     7    13    1
    15     8    10    1
    16     8    14    1
    17     4     5    1
    18    28    36    1
    19    30    33    1
    20    30    38    1
    21    31    34    1
    22    31    39    1
    23    32    35    1
    24    32    40    1
    25    41    43   ar
    26    15    19    2
    27    42    43   ar
    28    16    22    2
    29    17    12    1
    30    17    19   ar
    31    17    20   ar
    32    18    19   ar
    33    18    22   ar
    34    18    23    1
    35     9    10    1
    36     9    11    1
    37    10    12    1
    38    11     5    1
    39    33    34    1
    40    33    35    1
    41    34    36    1
    42    35    37    1
    43    37    43    1
    44    20    21   ar
    45    21    22   ar
@<TRIPOS>MOLECULE
UDP-glaA
 43 45 0 0 0
SMALL
GASTEIGER

@<TRIPOS>ATOM
      1 P          22.1271   72.0322   -2.4325 P.3     1  UNL1        0.2189
      2 O          21.8864   73.5387   -1.8941 O.3     1  UNL1       -0.4371
      3 O          23.3355   71.8573   -3.3050 O.2     1  UNL1       -0.5170
      4 O          20.7119   71.6271   -3.1024 O.3     1  UNL1       -0.3112
      5 C          20.1706   72.4707   -4.1047 C.3     1  UNL1        0.1811
      6 O          18.1288   72.5718   -5.3675 O.3     1  UNL1       -0.3308
      7 O          16.8138   71.3065   -2.9882 O.3     1  UNL1       -0.3794
      8 O          17.1240   69.1976   -4.6888 O.3     1  UNL1       -0.3779
      9 C          18.1186   71.0850   -3.5231 C.3     1  UNL1        0.1713
     10 C          18.0326   70.2736   -4.7986 C.3     1  UNL1        0.1895
     11 C          18.6513   72.4191   -4.0293 C.3     1  UNL1        0.1764
     12 C          17.5829   71.3172   -5.8069 C.3     1  UNL1        0.2383
     13 H          16.9156   71.8616   -2.1963 H       1  UNL1        0.2105
     14 H          17.4227   68.6362   -3.9527 H       1  UNL1        0.2106
     15 O          15.9573   70.3955   -7.9244 O.2     1  UNL1       -0.2464
     16 O          19.5161   70.2830  -10.8503 O.2     1  UNL1       -0.2670
     17 N          18.0581   71.0395   -7.1322 N.ar    1  UNL1       -0.2551
     18 N          17.7307   70.3396   -9.3798 N.ar    1  UNL1       -0.2743
     19 C          17.1595   70.5796   -8.1231 C.ar    1  UNL1        0.3323
     20 C          19.4017   71.2230   -7.4394 C.ar    1  UNL1        0.0869
     21 C          19.9308   70.9902   -8.6426 C.ar    1  UNL1        0.0795
     22 C          19.0607   70.5070   -9.7330 C.ar    1  UNL1        0.2626
     23 H          17.1035   70.0078  -10.1076 H       1  UNL1        0.1734
     24 O          22.1473   71.1597   -1.0711 O.3     1  UNL1       -0.2703
     25 P          21.5588   71.4772    0.4005 P.3     1  UNL1        0.2208
     26 O          21.5377   70.0252    1.1128 O.3     1  UNL1       -0.4371
     27 O          20.2337   72.1842    0.3946 O.2     1  UNL1       -0.5170
     28 O          22.7406   72.2820    1.1486 O.3     1  UNL1       -0.2858
     29 O          22.1193   73.7951    2.8586 O.3     1  UNL1       -0.3226
     30 O          26.0646   74.8803    2.1264 O.3     1  UNL1       -0.3794
     31 O          24.2757   74.2200   -0.0803 O.3     1  UNL1       -0.3775
     32 O          24.1258   75.5066    3.9914 O.3     1  UNL1       -0.3792
     33 C          24.9267   74.0323    2.2537 C.3     1  UNL1        0.1718
     34 C          23.8389   74.4442    1.2560 C.3     1  UNL1        0.1968
     35 C          24.3909   74.1339    3.6844 C.3     1  UNL1        0.1723
     36 C          22.5489   73.6515    1.5007 C.3     1  UNL1        0.2706
     37 C          23.0894   73.3438    3.8024 C.3     1  UNL1        0.1830
     38 H          26.7246   74.5852    2.7767 H       1  UNL1        0.2105
     39 H          23.5530   74.4856   -0.6737 H       1  UNL1        0.2106
     40 H          23.3213   75.7791    3.5185 H       1  UNL1        0.2106
     41 O          21.1528   73.8484    5.0267 O.co2   1  UNL1       -0.5466
     42 O          23.0422   73.3870    6.2160 O.co2   1  UNL1       -0.5466
     43 C          22.4618   73.5208    5.1484 C.2     1  UNL1        0.0799
@<TRIPOS>UNITY_ATOM_ATTR
41 1
charge -1
@<TRIPOS>BOND
     1     1     4    1
     2     1    24    1
     3     1     2    1
     4     1     3    2
     5    25    28    1
     6    25    24    1
     7    25    26    1
     8    25    27    2
     9     6    11    1
    10     6    12    1
    11    29    36    1
    12    29    37    1
    13     7     9    1
    14     7    13    1
    15     8    10    1
    16     8    14    1
    17     4     5    1
    18    28    36    1
    19    30    33    1
    20    30    38    1
    21    31    34    1
    22    31    39    1
    23    32    35    1
    24    32    40    1
    25    41    43   ar
    26    15    19    2
    27    42    43   ar
    28    16    22    2
    29    17    12    1
    30    17    19   ar
    31    17    20   ar
    32    18    19   ar
    33    18    22   ar
    34    18    23    1
    35     9    10    1
    36     9    11    1
    37    10    12    1
    38    11     5    1
    39    33    34    1
    40    33    35    1
    41    34    36    1
    42    35    37    1
    43    37    43    1
    44    20    21   ar
    45    21    22   ar
@<TRIPOS>MOLECULE
UDP-glaA
 43 45 0 0 0
SMALL
GASTEIGER

@<TRIPOS>ATOM
      1 P          22.9209   71.5670   -3.0905 P.3     1  UNL1        0.2189
      2 O          22.5463   72.2048   -4.5294 O.3     1  UNL1       -0.4371
      3 O          24.2212   70.8190   -3.0489 O.2     1  UNL1       -0.5170
      4 O          21.6066   70.7149   -2.6879 O.3     1  UNL1       -0.3112
      5 C          20.7462   70.2678   -3.7218 C.3     1  UNL1        0.1811
      6 O          18.9102   71.5027   -4.6593 O.3     1  UNL1       -0.3308
      7 O          17.2306   70.2878   -2.4926 O.3     1  UNL1       -0.3794
      8 O          16.6015   68.7594   -4.6615 O.3     1  UNL1       -0.3779
      9 C          18.3140   69.7145   -3.2242 C.3     1  UNL1        0.1713
     10 C          17.8741   69.3719   -4.6319 C.3     1  UNL1        0.1895
     11 C          19.3456   70.8077   -3.4698 C.3     1  UNL1        0.1764
     12 C          17.8827   70.7335   -5.3056 C.3     1  UNL1        0.2383
     13 H          17.5691   70.5263   -1.6128 H       1  UNL1        0.2105
     14 H          16.6519   67.9533   -4.1194 H       1  UNL1        0.2106
     15 O          15.9612   70.2031   -7.3061 O.2     1  UNL1       -0.2464
     16 O          19.1180   70.4318  -10.6559 O.2     1  UNL1       -0.2670
     17 N          18.1745   70.6494   -6.7081 N.ar    1  UNL1       -0.2551
     18 N          17.5346   70.3168   -8.9728 N.ar    1  UNL1       -0.2743
     19 C          17.1372   70.3773   -7.6306 C.ar    1  UNL1        0.3323
     20 C          19.4772   70.8355   -7.1575 C.ar    1  UNL1        0.0869
     21 C          19.8399   70.7751   -8.4407 C.ar    1  UNL1        0.0795
     22 C          18.8172   70.4945   -9.4678 C.ar    1  UNL1        0.2626
     23 H          16.8055   70.1218   -9.6537 H       1  UNL1        0.1734
     24 O          22.8451   72.8418   -2.0983 O.3     1  UNL1       -0.2703
     25 P          22.4506   72.9460   -0.5343 P.3     1  UNL1        0.2208
     26 O          23.2567   71.7137    0.1347 O.3     1  UNL1       -0.4371
     27 O          20.9721   72.9361   -0.2700 O.2     1  UNL1       -0.5170
     28 O          23.2132   74.2670   -0.0074 O.3     1  UNL1       -0.2858
     29 O          21.9380   74.9700    1.8578 O.3     1  UNL1       -0.3226
     30 O          23.1152   71.1497    2.9976 O.3     1  UNL1       -0.3794
     31 O          24.9820   72.9319    1.6393 O.3     1  UNL1       -0.3775
     32 O          21.3940   73.0867    3.9545 O.3     1  UNL1       -0.3792
     33 C          22.7147   72.2087    2.1325 C.3     1  UNL1        0.1718
     34 C          23.7339   73.3521    2.1801 C.3     1  UNL1        0.1968
     35 C          21.3385   72.7149    2.5734 C.3     1  UNL1        0.1723
     36 C          23.2278   74.5642    1.3882 C.3     1  UNL1        0.2706
     37 C          20.9548   73.9418    1.7491 C.3     1  UNL1        0.1830
     38 H          22.4415   70.4511    2.9374 H       1  UNL1        0.2105
     39 H          25.5900   73.6890    1.6818 H       1  UNL1        0.2106
     40 H          21.8841   73.9230    4.0298 H       1  UNL1        0.2106
     41 O          18.6436   74.1901    1.4317 O.co2   1  UNL1       -0.5466
     42 O          19.5678   75.2656    3.2167 O.co2   1  UNL1       -0.5466
     43 C          19.6759   74.5479    2.2330 C.2     1  UNL1        0.0799
@<TRIPOS>UNITY_ATOM_ATTR
41 1
charge -1
@<TRIPOS>BOND
     1     1     4    1
     2     1    24    1
     3     1     2    1
     4     1     3    2
     5    25    28    1
     6    25    24    1
     7    25    26    1
     8    25    27    2
     9     6    11    1
    10     6    12    1
    11    29    36    1
    12    29    37    1
    13     7     9    1
    14     7    13    1
    15     8    10    1
    16     8    14    1
    17     4     5    1
    18    28    36    1
    19    30    33    1
    20    30    38    1
    21    31    34    1
    22    31    39    1
    23    32    35    1
    24    32    40    1
    25    41    43   ar
    26    15    19    2
    27    42    43   ar
    28    16    22    2
    29    17    12    1
    30    17    19   ar
    31    17    20   ar
    32    18    19   ar
    33    18    22   ar
    34    18    23    1
    35     9    10    1
    36     9    11    1
    37    10    12    1
    38    11     5    1
    39    33    34    1
    40    33    35    1
    41    34    36    1
    42    35    37    1
    43    37    43    1
    44    20    21   ar
    45    21    22   ar
@<TRIPOS>MOLECULE
UDP-glaA
 43 45 0 0 0
SMALL
GASTEIGER

@<TRIPOS>ATOM
      1 P          23.3404   71.9989   -3.1801 P.3     1  UNL1        0.2189
      2 O          24.3225   72.6262   -4.3022 O.3     1  UNL1       -0.4371
      3 O          23.9669   70.9547   -2.3030 O.2     1  UNL1       -0.5170
      4 O          22.0419   71.5250   -4.0196 O.3     1  UNL1       -0.3112
      5 C          21.4941   72.4133   -4.9787 C.3     1  UNL1        0.1811
      6 O          20.4879   70.4752   -5.9815 O.3     1  UNL1       -0.3308
      7 O          20.7404   71.9264   -8.5933 O.3     1  UNL1       -0.3794
      8 O          18.1132   72.2917   -7.9606 O.3     1  UNL1       -0.3779
      9 C          20.4468   72.4454   -7.2963 C.3     1  UNL1        0.1713
     10 C          19.0270   72.0985   -6.9008 C.3     1  UNL1        0.1895
     11 C          21.2624   71.6577   -6.2795 C.3     1  UNL1        0.1764
     12 C          19.1582   70.6386   -6.5016 C.3     1  UNL1        0.2383
     13 H          21.6694   72.1385   -8.7869 H       1  UNL1        0.2105
     14 H          18.1691   73.2250   -8.2288 H       1  UNL1        0.2106
     15 O          16.5440   69.7118   -7.0327 O.2     1  UNL1       -0.2464
     16 O          15.6125   69.2135   -2.5469 O.2     1  UNL1       -0.2670
     17 N          18.2117   70.2592   -5.4919 N.ar    1  UNL1       -0.2551
     18 N          16.0817   69.4648   -4.7986 N.ar    1  UNL1       -0.2743
     19 C          16.9240   69.8077   -5.8644 C.ar    1  UNL1        0.3323
     20 C          18.5628   70.3365   -4.1487 C.ar    1  UNL1        0.0869
     21 C          17.7484   70.0054   -3.1441 C.ar    1  UNL1        0.0795
     22 C          16.3857   69.5252   -3.4474 C.ar    1  UNL1        0.2626
     23 H          15.1507   69.1381   -5.0428 H       1  UNL1        0.1734
     24 O          22.8066   73.3072   -2.3935 O.3     1  UNL1       -0.2703
     25 P          23.6052   74.5550   -1.7471 P.3     1  UNL1        0.2208
     26 O          22.4809   75.7152   -1.6700 O.3     1  UNL1       -0.4371
     27 O          24.8481   74.9448   -2.4948 O.2     1  UNL1       -0.5170
     28 O          23.8573   74.1279   -0.2116 O.3     1  UNL1       -0.2858
     29 O          23.7442   72.0013    0.8200 O.3     1  UNL1       -0.3226
     30 O          22.5012   74.5221    3.8826 O.3     1  UNL1       -0.3794
     31 O          21.6015   74.9629    1.1436 O.3     1  UNL1       -0.3775
     32 O          23.1551   71.8507    3.6251 O.3     1  UNL1       -0.3792
     33 C          23.2233   74.0938    2.7313 C.3     1  UNL1        0.1718
     34 C          22.2594   73.7791    1.5824 C.3     1  UNL1        0.1968
     35 C          24.0345   72.8461    3.0913 C.3     1  UNL1        0.1723
     36 C          23.0099   73.1556    0.3990 C.3     1  UNL1        0.2706
     37 C          24.7031   72.2890    1.8365 C.3     1  UNL1        0.1830
     38 H          23.1494   74.7074    4.5834 H       1  UNL1        0.2105
     39 H          21.0110   74.7164    0.4119 H       1  UNL1        0.2106
     40 H          22.6336   71.4759    2.8953 H       1  UNL1        0.2106
     41 O          24.5942   69.9455    1.8317 O.co2   1  UNL1       -0.5466
     42 O          26.5428   70.8927    2.5406 O.co2   1  UNL1       -0.5466
     43 C          25.4010   70.9960    2.1164 C.2     1  UNL1        0.0799
@<TRIPOS>UNITY_ATOM_ATTR
41 1
charge -1
@<TRIPOS>BOND
     1     1     4    1
     2     1    24    1
     3     1     2    1
     4     1     3    2
     5    25    28    1
     6    25    24    1
     7    25    26    1
     8    25    27    2
     9     6    11    1
    10     6    12    1
    11    29    36    1
    12    29    37    1
    13     7     9    1
    14     7    13    1
    15     8    10    1
    16     8    14    1
    17     4     5    1
    18    28    36    1
    19    30    33    1
    20    30    38    1
    21    31    34    1
    22    31    39    1
    23    32    35    1
    24    32    40    1
    25    41    43   ar
    26    15    19    2
    27    42    43   ar
    28    16    22    2
    29    17    12    1
    30    17    19   ar
    31    17    20   ar
    32    18    19   ar
    33    18    22   ar
    34    18    23    1
    35     9    10    1
    36     9    11    1
    37    10    12    1
    38    11     5    1
    39    33    34    1
    40    33    35    1
    41    34    36    1
    42    35    37    1
    43    37    43    1
    44    20    21   ar
    45    21    22   ar
@<TRIPOS>MOLECULE
UDP-glaA
 43 45 0 0 0
SMALL
GASTEIGER

@<TRIPOS>ATOM
      1 P          23.4176   71.9429   -3.3392 P.3     1  UNL1        0.2189
      2 O          24.1913   72.9925   -4.2968 O.3     1  UNL1       -0.4371
      3 O          24.1899   70.6993   -3.0088 O.2     1  UNL1       -0.5170
      4 O          21.9982   71.7130   -4.0796 O.3     1  UNL1       -0.3112
      5 C          21.2195   70.5856   -3.7165 C.3     1  UNL1        0.1811
      6 O          19.2411   71.6585   -4.5586 O.3     1  UNL1       -0.3308
      7 O          17.8101   70.4337   -2.2255 O.3     1  UNL1       -0.3794
      8 O          17.1277   68.7755   -4.2798 O.3     1  UNL1       -0.3779
      9 C          18.8730   69.8997   -3.0146 C.3     1  UNL1        0.1713
     10 C          18.3551   69.4689   -4.3706 C.3     1  UNL1        0.1895
     11 C          19.8081   71.0451   -3.3798 C.3     1  UNL1        0.1764
     12 C          18.2229   70.7978   -5.0949 C.3     1  UNL1        0.2383
     13 H          18.1954   70.7314   -1.3837 H       1  UNL1        0.2105
     14 H          17.2718   67.9986   -3.7125 H       1  UNL1        0.2106
     15 O          16.2218   69.9792   -6.9117 O.2     1  UNL1       -0.2464
     16 O          19.0793   70.3481  -10.5085 O.2     1  UNL1       -0.2670
     17 N          18.4162   70.6718   -6.5113 N.ar    1  UNL1       -0.2551
     18 N          17.6462   70.1630   -8.7015 N.ar    1  UNL1       -0.2743
     19 C          17.3462   70.2521   -7.3358 C.ar    1  UNL1        0.3323
     20 C          19.6557   70.9625   -7.0703 C.ar    1  UNL1        0.0869
     21 C          19.9257   70.8732   -8.3745 C.ar    1  UNL1        0.0795
     22 C          18.8633   70.4411   -9.3041 C.ar    1  UNL1        0.2626
     23 H          16.8921   69.8626   -9.3133 H       1  UNL1        0.1734
     24 O          23.0173   72.8470   -2.0595 O.3     1  UNL1       -0.2703
     25 P          22.5172   74.3808   -1.9597 P.3     1  UNL1        0.2208
     26 O          21.8764   74.6578   -3.4187 O.3     1  UNL1       -0.4371
     27 O          23.5892   75.3533   -1.5586 O.2     1  UNL1       -0.5170
     28 O          21.2515   74.3340   -0.9599 O.3     1  UNL1       -0.2858
     29 O          21.5463   72.9169    0.9120 O.3     1  UNL1       -0.3226
     30 O          25.1641   74.9602    0.7883 O.3     1  UNL1       -0.3794
     31 O          22.6546   76.3590    0.2866 O.3     1  UNL1       -0.3775
     32 O          24.1154   72.8225    2.1885 O.3     1  UNL1       -0.3792
     33 C          23.9850   74.3252    0.3017 C.3     1  UNL1        0.1718
     34 C          22.7365   75.0434    0.8247 C.3     1  UNL1        0.1968
     35 C          23.9819   72.8655    0.7640 C.3     1  UNL1        0.1723
     36 C          21.4670   74.2691    0.4492 C.3     1  UNL1        0.2706
     37 C          22.6606   72.2065    0.3741 C.3     1  UNL1        0.1830
     38 H          25.9273   74.4720    0.4350 H       1  UNL1        0.2105
     39 H          21.8463   76.7696    0.6372 H       1  UNL1        0.2106
     40 H          23.2726   73.0996    2.5862 H       1  UNL1        0.2106
     41 O          23.7921   70.3082    1.1613 O.co2   1  UNL1       -0.5466
     42 O          21.5145   70.2180    1.1240 O.co2   1  UNL1       -0.5466
     43 C          22.5601   70.8173    0.9192 C.2     1  UNL1        0.0799
@<TRIPOS>UNITY_ATOM_ATTR
41 1
charge -1
@<TRIPOS>BOND
     1     1     4    1
     2     1    24    1
     3     1     2    1
     4     1     3    2
     5    25    28    1
     6    25    24    1
     7    25    26    1
     8    25    27    2
     9     6    11    1
    10     6    12    1
    11    29    36    1
    12    29    37    1
    13     7     9    1
    14     7    13    1
    15     8    10    1
    16     8    14    1
    17     4     5    1
    18    28    36    1
    19    30    33    1
    20    30    38    1
    21    31    34    1
    22    31    39    1
    23    32    35    1
    24    32    40    1
    25    41    43   ar
    26    15    19    2
    27    42    43   ar
    28    16    22    2
    29    17    12    1
    30    17    19   ar
    31    17    20   ar
    32    18    19   ar
    33    18    22   ar
    34    18    23    1
    35     9    10    1
    36     9    11    1
    37    10    12    1
    38    11     5    1
    39    33    34    1
    40    33    35    1
    41    34    36    1
    42    35    37    1
    43    37    43    1
    44    20    21   ar
    45    21    22   ar
@<TRIPOS>MOLECULE
UDP-glaA
 43 45 0 0 0
SMALL
GASTEIGER

@<TRIPOS>ATOM
      1 P          21.0270   73.1991   -4.4703 P.3     1  UNL1        0.2189
      2 O          20.0575   74.4266   -4.8837 O.3     1  UNL1       -0.4371
      3 O          21.5212   72.3686   -5.6184 O.2     1  UNL1       -0.5170
      4 O          20.1890   72.4050   -3.3378 O.3     1  UNL1       -0.3112
      5 C          19.5464   71.1932   -3.6956 C.3     1  UNL1        0.1811
      6 O          17.7347   71.9076   -5.1032 O.3     1  UNL1       -0.3308
      7 O          15.9207   70.5480   -3.1405 O.3     1  UNL1       -0.3794
      8 O          16.0660   68.7348   -5.1720 O.3     1  UNL1       -0.3779
      9 C          17.2229   70.1648   -3.5822 C.3     1  UNL1        0.1713
     10 C          17.1583   69.6121   -4.9904 C.3     1  UNL1        0.1895
     11 C          18.0453   71.4322   -3.7748 C.3     1  UNL1        0.1764
     12 C          17.0350   70.8780   -5.8212 C.3     1  UNL1        0.2383
     13 H          16.0172   70.9311   -2.2519 H       1  UNL1        0.2105
     14 H          16.1628   68.0101   -4.5304 H       1  UNL1        0.2106
     15 O          15.5570   70.6684   -8.2185 O.2     1  UNL1       -0.2464
     16 O          19.3846   70.3406  -10.7641 O.2     1  UNL1       -0.2670
     17 N          17.6194   70.7376   -7.1243 N.ar    1  UNL1       -0.2551
     18 N          17.4640   70.5048   -9.4845 N.ar    1  UNL1       -0.2743
     19 C          16.7881   70.6394   -8.2645 C.ar    1  UNL1        0.3323
     20 C          19.0023   70.6981   -7.2631 C.ar    1  UNL1        0.0869
     21 C          19.6316   70.5698   -8.4333 C.ar    1  UNL1        0.0795
     22 C          18.8367   70.4602   -9.6726 C.ar    1  UNL1        0.2626
     23 H          16.8865   70.4319  -10.3177 H       1  UNL1        0.1734
     24 O          22.1908   73.9283   -3.6164 O.3     1  UNL1       -0.2703
     25 P          23.7257   73.5047   -3.3388 P.3     1  UNL1        0.2208
     26 O          24.5391   74.8830   -3.5730 O.3     1  UNL1       -0.4371
     27 O          24.2069   72.3516   -4.1722 O.2     1  UNL1       -0.5170
     28 O          23.7989   73.2528   -1.7466 O.3     1  UNL1       -0.2858
     29 O          22.0479   73.2257   -0.1551 O.3     1  UNL1       -0.3226
     30 O          25.2491   74.6279    2.0956 O.3     1  UNL1       -0.3794
     31 O          24.8405   75.5572   -0.6385 O.3     1  UNL1       -0.3775
     32 O          22.6602   73.8010    2.5895 O.3     1  UNL1       -0.3792
     33 C          24.5587   73.8804    1.0981 C.3     1  UNL1        0.1718
     34 C          23.8725   74.8228    0.1035 C.3     1  UNL1        0.1968
     35 C          23.5169   72.9891    1.7797 C.3     1  UNL1        0.1723
     36 C          22.9880   74.0343   -0.8703 C.3     1  UNL1        0.2706
     37 C          22.6706   72.2866    0.7202 C.3     1  UNL1        0.1830
     38 H          25.6650   73.9925    2.7030 H       1  UNL1        0.2105
     39 H          24.3608   76.1310   -1.2593 H       1  UNL1        0.2106
     40 H          22.0625   74.2976    2.0053 H       1  UNL1        0.2106
     41 O          21.6941   70.1836    1.0771 O.co2   1  UNL1       -0.5466
     42 O          20.6436   71.9856    1.9970 O.co2   1  UNL1       -0.5466
     43 C          21.5558   71.5055    1.3398 C.2     1  UNL1        0.0799
@<TRIPOS>UNITY_ATOM_ATTR
41 1
charge -1
@<TRIPOS>BOND
     1     1     4    1
     2     1    24    1
     3     1     2    1
     4     1     3    2
     5    25    28    1
     6    25    24    1
     7    25    26    1
     8    25    27    2
     9     6    11    1
    10     6    12    1
    11    29    36    1
    12    29    37    1
    13     7     9    1
    14     7    13    1
    15     8    10    1
    16     8    14    1
    17     4     5    1
    18    28    36    1
    19    30    33    1
    20    30    38    1
    21    31    34    1
    22    31    39    1
    23    32    35    1
    24    32    40    1
    25    41    43   ar
    26    15    19    2
    27    42    43   ar
    28    16    22    2
    29    17    12    1
    30    17    19   ar
    31    17    20   ar
    32    18    19   ar
    33    18    22   ar
    34    18    23    1
    35     9    10    1
    36     9    11    1
    37    10    12    1
    38    11     5    1
    39    33    34    1
    40    33    35    1
    41    34    36    1
    42    35    37    1
    43    37    43    1
    44    20    21   ar
    45    21    22   ar
@<TRIPOS>MOLECULE
UDP-glaA
 43 45 0 0 0
SMALL
GASTEIGER

@<TRIPOS>ATOM
      1 P          23.6946   73.3544   -3.7778 P.3     1  UNL1        0.2189
      2 O          22.5755   74.4626   -3.4077 O.3     1  UNL1       -0.4371
      3 O          25.0883   73.8892   -3.9317 O.2     1  UNL1       -0.5170
      4 O          23.0838   72.6010   -5.0720 O.3     1  UNL1       -0.3112
      5 C          21.7650   72.0870   -4.9969 C.3     1  UNL1        0.1811
      6 O          20.5195   70.3630   -6.1153 O.3     1  UNL1       -0.3308
      7 O          20.7555   72.0520   -8.5817 O.3     1  UNL1       -0.3794
      8 O          18.2177   72.5829   -7.7370 O.3     1  UNL1       -0.3779
      9 C          20.5905   72.4562   -7.2226 C.3     1  UNL1        0.1713
     10 C          19.1698   72.1983   -6.7668 C.3     1  UNL1        0.1895
     11 C          21.3852   71.4961   -6.3472 C.3     1  UNL1        0.1764
     12 C          19.1833   70.6987   -6.5242 C.3     1  UNL1        0.2383
     13 H          21.6876   72.1991   -8.8166 H       1  UNL1        0.2105
     14 H          18.3472   73.5304   -7.9146 H       1  UNL1        0.2106
     15 O          16.4693   70.0550   -6.9662 O.2     1  UNL1       -0.2464
     16 O          15.7568   69.1904   -2.4959 O.2     1  UNL1       -0.2670
     17 N          18.2661   70.3017   -5.4944 N.ar    1  UNL1       -0.2551
     18 N          16.1162   69.6254   -4.7398 N.ar    1  UNL1       -0.2743
     19 C          16.9233   70.0007   -5.8218 C.ar    1  UNL1        0.3323
     20 C          18.6996   70.2139   -4.1761 C.ar    1  UNL1        0.0869
     21 C          17.9179   69.8541   -3.1558 C.ar    1  UNL1        0.0795
     22 C          16.5019   69.5241   -3.4121 C.ar    1  UNL1        0.2626
     23 H          15.1468   69.4050   -4.9516 H       1  UNL1        0.1734
     24 O          23.5202   72.2570   -2.6029 O.3     1  UNL1       -0.2703
     25 P          23.2654   72.4334   -1.0165 P.3     1  UNL1        0.2208
     26 O          21.6552   72.3507   -0.8878 O.3     1  UNL1       -0.4371
     27 O          23.8712   73.6763   -0.4299 O.2     1  UNL1       -0.5170
     28 O          23.7987   71.0586   -0.3613 O.3     1  UNL1       -0.2858
     29 O          24.7041   71.7896    1.6991 O.3     1  UNL1       -0.3226
     30 O          20.6916   72.7972    2.1045 O.3     1  UNL1       -0.3794
     31 O          21.4672   70.2636    0.8857 O.3     1  UNL1       -0.3775
     32 O          23.0258   73.2548    3.5089 O.3     1  UNL1       -0.3792
     33 C          21.9426   72.5771    1.4589 C.3     1  UNL1        0.1718
     34 C          22.3643   71.1103    1.5965 C.3     1  UNL1        0.1968
     35 C          22.9960   73.4870    2.0967 C.3     1  UNL1        0.1723
     36 C          23.7845   70.9004    1.0568 C.3     1  UNL1        0.2706
     37 C          24.3715   73.1650    1.5166 C.3     1  UNL1        0.1830
     38 H          20.4660   73.7366    1.9944 H       1  UNL1        0.2105
     39 H          21.7790   69.3493    0.9936 H       1  UNL1        0.2106
     40 H          23.4586   72.3997    3.6722 H       1  UNL1        0.2106
     41 O          26.1020   73.1611    3.1007 O.co2   1  UNL1       -0.5466
     42 O          25.7161   75.1138    1.9895 O.co2   1  UNL1       -0.5466
     43 C          25.4503   73.9400    2.2039 C.2     1  UNL1        0.0799
@<TRIPOS>UNITY_ATOM_ATTR
41 1
charge -1
@<TRIPOS>BOND
     1     1     4    1
     2     1    24    1
     3     1     2    1
     4     1     3    2
     5    25    28    1
     6    25    24    1
     7    25    26    1
     8    25    27    2
     9     6    11    1
    10     6    12    1
    11    29    36    1
    12    29    37    1
    13     7     9    1
    14     7    13    1
    15     8    10    1
    16     8    14    1
    17     4     5    1
    18    28    36    1
    19    30    33    1
    20    30    38    1
    21    31    34    1
    22    31    39    1
    23    32    35    1
    24    32    40    1
    25    41    43   ar
    26    15    19    2
    27    42    43   ar
    28    16    22    2
    29    17    12    1
    30    17    19   ar
    31    17    20   ar
    32    18    19   ar
    33    18    22   ar
    34    18    23    1
    35     9    10    1
    36     9    11    1
    37    10    12    1
    38    11     5    1
    39    33    34    1
    40    33    35    1
    41    34    36    1
    42    35    37    1
    43    37    43    1
    44    20    21   ar
    45    21    22   ar
@<TRIPOS>MOLECULE
UDP-glaA
 43 45 0 0 0
SMALL
GASTEIGER

@<TRIPOS>ATOM
      1 P          20.6245   71.2525   -1.5417 P.3     1  UNL1        0.2189
      2 O          21.3145   70.5361   -0.2657 O.3     1  UNL1       -0.4371
      3 O          20.1006   72.6351   -1.2847 O.2     1  UNL1       -0.5170
      4 O          19.5354   70.1720   -2.0535 O.3     1  UNL1       -0.3112
      5 C          19.1752   70.1704   -3.4244 C.3     1  UNL1        0.1811
      6 O          17.5625   71.3213   -4.7841 O.3     1  UNL1       -0.3308
      7 O          15.4715   69.8257   -3.2409 O.3     1  UNL1       -0.3794
      8 O          15.6186   68.4124   -5.5682 O.3     1  UNL1       -0.3779
      9 C          16.7651   69.3933   -3.6619 C.3     1  UNL1        0.1713
     10 C          16.7683   69.1193   -5.1511 C.3     1  UNL1        0.1895
     11 C          17.7148   70.5791   -3.5541 C.3     1  UNL1        0.1764
     12 C          16.8333   70.5222   -5.7302 C.3     1  UNL1        0.2383
     13 H          15.5279   70.0262   -2.2910 H       1  UNL1        0.2105
     14 H          15.5933   67.5759   -5.0724 H       1  UNL1        0.2106
     15 O          15.5356   70.4376   -8.2370 O.2     1  UNL1       -0.2464
     16 O          19.5320   70.6804  -10.5192 O.2     1  UNL1       -0.2670
     17 N          17.5098   70.5624   -6.9951 N.ar    1  UNL1       -0.2551
     18 N          17.5265   70.5580   -9.3718 N.ar    1  UNL1       -0.2743
     19 C          16.7650   70.5132   -8.1966 C.ar    1  UNL1        0.3323
     20 C          18.8969   70.6493   -7.0369 C.ar    1  UNL1        0.0869
     21 C          19.6085   70.6915   -8.1655 C.ar    1  UNL1        0.0795
     22 C          18.9071   70.6440   -9.4637 C.ar    1  UNL1        0.2626
     23 H          17.0121   70.5234  -10.2477 H       1  UNL1        0.1734
     24 O          21.7780   71.1687   -2.6720 O.3     1  UNL1       -0.2703
     25 P          23.1525   72.0007   -2.8478 P.3     1  UNL1        0.2208
     26 O          24.2670   70.8425   -3.0283 O.3     1  UNL1       -0.4371
     27 O          23.4358   72.9652   -1.7319 O.2     1  UNL1       -0.5170
     28 O          23.0336   72.6836   -4.3050 O.3     1  UNL1       -0.2858
     29 O          20.8137   73.4923   -4.4373 O.3     1  UNL1       -0.3226
     30 O          22.4310   74.7947   -8.0383 O.3     1  UNL1       -0.3794
     31 O          23.0507   72.1363   -7.0111 O.3     1  UNL1       -0.3775
     32 O          20.0850   75.1893   -6.6346 O.3     1  UNL1       -0.3792
     33 C          22.3834   74.4463   -6.6575 C.3     1  UNL1        0.1718
     34 C          22.0180   72.9674   -6.4917 C.3     1  UNL1        0.1968
     35 C          21.3406   75.3248   -5.9608 C.3     1  UNL1        0.1723
     36 C          21.7961   72.6251   -5.0132 C.3     1  UNL1        0.2706
     37 C          21.1725   74.8712   -4.5124 C.3     1  UNL1        0.1830
     38 H          22.6627   75.7374   -8.0952 H       1  UNL1        0.2105
     39 H          22.7799   71.2126   -6.8757 H       1  UNL1        0.2106
     40 H          19.7088   74.3202   -6.4147 H       1  UNL1        0.2106
     41 O          20.5283   76.2287   -2.7108 O.co2   1  UNL1       -0.5466
     42 O          18.9142   75.6746   -4.2223 O.co2   1  UNL1       -0.5466
     43 C          20.0705   75.6171   -3.8297 C.2     1  UNL1        0.0799
@<TRIPOS>UNITY_ATOM_ATTR
41 1
charge -1
@<TRIPOS>BOND
     1     1     4    1
     2     1    24    1
     3     1     2    1
     4     1     3    2
     5    25    28    1
     6    25    24    1
     7    25    26    1
     8    25    27    2
     9     6    11    1
    10     6    12    1
    11    29    36    1
    12    29    37    1
    13     7     9    1
    14     7    13    1
    15     8    10    1
    16     8    14    1
    17     4     5    1
    18    28    36    1
    19    30    33    1
    20    30    38    1
    21    31    34    1
    22    31    39    1
    23    32    35    1
    24    32    40    1
    25    41    43   ar
    26    15    19    2
    27    42    43   ar
    28    16    22    2
    29    17    12    1
    30    17    19   ar
    31    17    20   ar
    32    18    19   ar
    33    18    22   ar
    34    18    23    1
    35     9    10    1
    36     9    11    1
    37    10    12    1
    38    11     5    1
    39    33    34    1
    40    33    35    1
    41    34    36    1
    42    35    37    1
    43    37    43    1
    44    20    21   ar
    45    21    22   ar
@<TRIPOS>MOLECULE
UDP-glaA
 43 45 0 0 0
SMALL
GASTEIGER

@<TRIPOS>ATOM
      1 P          22.3648   73.0801   -6.4132 P.3     1  UNL1        0.2189
      2 O          21.4829   74.1743   -5.6119 O.3     1  UNL1       -0.4371
      3 O          23.0735   73.6048   -7.6275 O.2     1  UNL1       -0.5170
      4 O          21.3327   71.8624   -6.6731 O.3     1  UNL1       -0.3112
      5 C          20.1428   72.1256   -7.3970 C.3     1  UNL1        0.1811
      6 O          19.0718   70.0415   -6.8645 O.3     1  UNL1       -0.3308
      7 O          18.3901   69.8619   -9.7790 O.3     1  UNL1       -0.3794
      8 O          16.0512   70.7224   -8.6723 O.3     1  UNL1       -0.3779
      9 C          18.4509   71.0114   -8.9348 C.3     1  UNL1        0.1713
     10 C          17.2548   71.0454   -8.0070 C.3     1  UNL1        0.1895
     11 C          19.6050   70.8178   -7.9600 C.3     1  UNL1        0.1764
     12 C          17.6381   70.0137   -6.9597 C.3     1  UNL1        0.2383
     13 H          19.1938   69.8616  -10.3265 H       1  UNL1        0.2105
     14 H          15.9349   71.3635   -9.3945 H       1  UNL1        0.2106
     15 O          16.2290   68.1516   -5.3716 O.2     1  UNL1       -0.2464
     16 O          15.5333   71.2502   -2.0319 O.2     1  UNL1       -0.2670
     17 N          17.0786   70.3065   -5.6712 N.ar    1  UNL1       -0.2551
     18 N          15.8831   69.6959   -3.7098 N.ar    1  UNL1       -0.2743
     19 C          16.3884   69.3005   -4.9554 C.ar    1  UNL1        0.3323
     20 C          17.2160   71.5795   -5.1289 C.ar    1  UNL1        0.0869
     21 C          16.7288   71.9408   -3.9398 C.ar    1  UNL1        0.0795
     22 C          15.9941   70.9497   -3.1289 C.ar    1  UNL1        0.2626
     23 H          15.3826   68.9891   -3.1778 H       1  UNL1        0.1734
     24 O          23.3404   72.4907   -5.2661 O.3     1  UNL1       -0.2703
     25 P          23.1126   72.2958   -3.6778 P.3     1  UNL1        0.2208
     26 O          24.0154   70.9996   -3.3298 O.3     1  UNL1       -0.4371
     27 O          21.6715   72.1746   -3.2725 O.2     1  UNL1       -0.5170
     28 O          23.8947   73.5327   -2.9977 O.3     1  UNL1       -0.2858
     29 O          22.9264   75.2492   -1.6880 O.3     1  UNL1       -0.3226
     30 O          26.2851   77.1353   -3.2505 O.3     1  UNL1       -0.3794
     31 O          24.6736   75.3621   -4.9132 O.3     1  UNL1       -0.3775
     32 O          24.3546   77.7176   -1.3625 O.3     1  UNL1       -0.3792
     33 C          25.4794   76.0789   -2.7353 C.3     1  UNL1        0.1718
     34 C          24.2636   75.8450   -3.6383 C.3     1  UNL1        0.1968
     35 C          25.0194   76.4505   -1.3230 C.3     1  UNL1        0.1723
     36 C          23.3031   74.8312   -3.0042 C.3     1  UNL1        0.2706
     37 C          24.0401   75.3977   -0.8086 C.3     1  UNL1        0.1830
     38 H          27.0394   77.2497   -2.6476 H       1  UNL1        0.2105
     39 H          23.8722   75.2203   -5.4448 H       1  UNL1        0.2106
     40 H          23.4802   77.5951   -1.7695 H       1  UNL1        0.2106
     41 O          24.3984   76.4010    1.2815 O.co2   1  UNL1       -0.5466
     42 O          22.3110   75.5840    0.8663 O.co2   1  UNL1       -0.5466
     43 C          23.4646   75.7864    0.5160 C.2     1  UNL1        0.0799
@<TRIPOS>UNITY_ATOM_ATTR
41 1
charge -1
@<TRIPOS>BOND
     1     1     4    1
     2     1    24    1
     3     1     2    1
     4     1     3    2
     5    25    28    1
     6    25    24    1
     7    25    26    1
     8    25    27    2
     9     6    11    1
    10     6    12    1
    11    29    36    1
    12    29    37    1
    13     7     9    1
    14     7    13    1
    15     8    10    1
    16     8    14    1
    17     4     5    1
    18    28    36    1
    19    30    33    1
    20    30    38    1
    21    31    34    1
    22    31    39    1
    23    32    35    1
    24    32    40    1
    25    41    43   ar
    26    15    19    2
    27    42    43   ar
    28    16    22    2
    29    17    12    1
    30    17    19   ar
    31    17    20   ar
    32    18    19   ar
    33    18    22   ar
    34    18    23    1
    35     9    10    1
    36     9    11    1
    37    10    12    1
    38    11     5    1
    39    33    34    1
    40    33    35    1
    41    34    36    1
    42    35    37    1
    43    37    43    1
    44    20    21   ar
    45    21    22   ar
@<TRIPOS>MOLECULE
UDP-glaA
 43 45 0 0 0
SMALL
GASTEIGER

@<TRIPOS>ATOM
      1 P          21.8992   72.4439   -5.7186 P.3     1  UNL1        0.2189
      2 O          21.2477   73.8741   -5.3347 O.3     1  UNL1       -0.4371
      3 O          23.1120   72.5169   -6.5995 O.2     1  UNL1       -0.5170
      4 O          20.6548   71.5935   -6.3049 O.3     1  UNL1       -0.3112
      5 C          20.1068   71.9701   -7.5567 C.3     1  UNL1        0.1811
      6 O          18.8785   69.9464   -7.1440 O.3     1  UNL1       -0.3308
      7 O          18.1180   70.0379  -10.0431 O.3     1  UNL1       -0.3794
      8 O          15.8846   71.0020   -8.8109 O.3     1  UNL1       -0.3779
      9 C          18.2934   71.1134   -9.1210 C.3     1  UNL1        0.1713
     10 C          17.1258   71.1762   -8.1591 C.3     1  UNL1        0.1895
     11 C          19.4493   70.7554   -8.1961 C.3     1  UNL1        0.1764
     12 C          17.4457   70.0424   -7.1997 C.3     1  UNL1        0.2383
     13 H          18.9062   70.0126  -10.6121 H       1  UNL1        0.2105
     14 H          15.8056   71.7019   -9.4818 H       1  UNL1        0.2106
     15 O          16.3295   68.0572   -5.5298 O.2     1  UNL1       -0.2464
     16 O          15.5425   71.0863   -2.1469 O.2     1  UNL1       -0.2670
     17 N          16.9419   70.2842   -5.8780 N.ar    1  UNL1       -0.2551
     18 N          15.9379   69.5670   -3.8466 N.ar    1  UNL1       -0.2743
     19 C          16.4006   69.2180   -5.1222 C.ar    1  UNL1        0.3323
     20 C          16.9868   71.5668   -5.3429 C.ar    1  UNL1        0.0869
     21 C          16.5420   71.8833   -4.1248 C.ar    1  UNL1        0.0795
     22 C          15.9610   70.8280   -3.2713 C.ar    1  UNL1        0.2626
     23 H          15.5440   68.8165   -3.2856 H       1  UNL1        0.1734
     24 O          22.1558   71.7632   -4.2743 O.3     1  UNL1       -0.2703
     25 P          23.3874   71.9083   -3.2376 P.3     1  UNL1        0.2208
     26 O          24.2007   73.1865   -3.8041 O.3     1  UNL1       -0.4371
     27 O          24.2151   70.6642   -3.0864 O.2     1  UNL1       -0.5170
     28 O          22.7103   72.4290   -1.8685 O.3     1  UNL1       -0.2858
     29 O          24.0162   73.2269   -0.0637 O.3     1  UNL1       -0.3226
     30 O          20.4229   72.2941    1.8066 O.3     1  UNL1       -0.3794
     31 O          21.5261   70.5372   -0.2434 O.3     1  UNL1       -0.3775
     32 O          22.7757   73.5627    2.5029 O.3     1  UNL1       -0.3792
     33 C          21.3046   72.7321    0.7764 C.3     1  UNL1        0.1718
     34 C          22.2518   71.5994    0.3663 C.3     1  UNL1        0.1968
     35 C          22.1101   73.9287    1.2897 C.3     1  UNL1        0.1723
     36 C          23.3140   72.1085   -0.6160 C.3     1  UNL1        0.2706
     37 C          23.1599   74.3233    0.2531 C.3     1  UNL1        0.1830
     38 H          19.8451   73.0419    2.0357 H       1  UNL1        0.2105
     39 H          22.1665   69.8501   -0.4937 H       1  UNL1        0.2106
     40 H          23.5183   72.9751    2.2826 H       1  UNL1        0.2106
     41 O          23.3336   76.3740    1.3793 O.co2   1  UNL1       -0.5466
     42 O          25.2732   75.4199    0.6546 O.co2   1  UNL1       -0.5466
     43 C          24.0559   75.4054    0.7661 C.2     1  UNL1        0.0799
@<TRIPOS>UNITY_ATOM_ATTR
41 1
charge -1
@<TRIPOS>BOND
     1     1     4    1
     2     1    24    1
     3     1     2    1
     4     1     3    2
     5    25    28    1
     6    25    24    1
     7    25    26    1
     8    25    27    2
     9     6    11    1
    10     6    12    1
    11    29    36    1
    12    29    37    1
    13     7     9    1
    14     7    13    1
    15     8    10    1
    16     8    14    1
    17     4     5    1
    18    28    36    1
    19    30    33    1
    20    30    38    1
    21    31    34    1
    22    31    39    1
    23    32    35    1
    24    32    40    1
    25    41    43   ar
    26    15    19    2
    27    42    43   ar
    28    16    22    2
    29    17    12    1
    30    17    19   ar
    31    17    20   ar
    32    18    19   ar
    33    18    22   ar
    34    18    23    1
    35     9    10    1
    36     9    11    1
    37    10    12    1
    38    11     5    1
    39    33    34    1
    40    33    35    1
    41    34    36    1
    42    35    37    1
    43    37    43    1
    44    20    21   ar
    45    21    22   ar
@<TRIPOS>MOLECULE
UDP-glaA
 43 45 0 0 0
SMALL
GASTEIGER

@<TRIPOS>ATOM
      1 P          23.4678   72.2009   -3.4450 P.3     1  UNL1        0.2189
      2 O          24.0680   70.7365   -3.1096 O.3     1  UNL1       -0.4371
      3 O          24.4413   73.1555   -4.0722 O.2     1  UNL1       -0.5170
      4 O          22.8121   72.6828   -2.0474 O.3     1  UNL1       -0.3112
      5 C          23.6310   72.7167   -0.8910 C.3     1  UNL1        0.1811
      6 O          24.5701   71.2119    0.7301 O.3     1  UNL1       -0.3308
      7 O          21.7678   70.2437    1.1785 O.3     1  UNL1       -0.3794
      8 O          22.1677   71.9120    3.2980 O.3     1  UNL1       -0.3779
      9 C          22.2328   71.5627    0.8929 C.3     1  UNL1        0.1713
     10 C          22.8977   72.1611    2.1146 C.3     1  UNL1        0.1895
     11 C          23.3983   71.4493   -0.0809 C.3     1  UNL1        0.1764
     12 C          24.2512   71.4712    2.1072 C.3     1  UNL1        0.2383
     13 H          21.3858   69.8872    0.3584 H       1  UNL1        0.2105
     14 H          21.2796   72.2905    3.1793 H       1  UNL1        0.2106
     15 O          26.9587   70.6967    2.3203 O.2     1  UNL1       -0.2464
     16 O          28.1288   74.6762    4.3285 O.2     1  UNL1       -0.2670
     17 N          25.2846   72.2851    2.6807 N.ar    1  UNL1       -0.2551
     18 N          27.5395   72.6786    3.3207 N.ar    1  UNL1       -0.2743
     19 C          26.6128   71.8023    2.7406 C.ar    1  UNL1        0.3323
     20 C          24.9777   73.5474    3.1767 C.ar    1  UNL1        0.0869
     21 C          25.8726   74.3712    3.7263 C.ar    1  UNL1        0.0795
     22 C          27.2818   73.9427    3.8281 C.ar    1  UNL1        0.2626
     23 H          28.5005   72.3522    3.3749 H       1  UNL1        0.1734
     24 O          22.1747   71.8628   -4.3553 O.3     1  UNL1       -0.2703
     25 P          20.6007   72.1292   -4.1020 P.3     1  UNL1        0.2208
     26 O          20.5252   73.7307   -3.8884 O.3     1  UNL1       -0.4371
     27 O          20.0131   71.3254   -2.9776 O.2     1  UNL1       -0.5170
     28 O          19.9069   71.8754   -5.5366 O.3     1  UNL1       -0.2858
     29 O          18.6733   69.9655   -6.1923 O.3     1  UNL1       -0.3226
     30 O          20.1640   71.3290   -9.8252 O.3     1  UNL1       -0.3794
     31 O          21.8381   71.3448   -7.4370 O.3     1  UNL1       -0.3775
     32 O          18.3585   69.4121   -8.9911 O.3     1  UNL1       -0.3792
     33 C          19.6516   71.3917   -8.4971 C.3     1  UNL1        0.1718
     34 C          20.5900   70.6657   -7.5273 C.3     1  UNL1        0.1968
     35 C          18.2654   70.7420   -8.4699 C.3     1  UNL1        0.1723
     36 C          19.9652   70.5787   -6.1293 C.3     1  UNL1        0.2706
     37 C          17.7598   70.6714   -7.0306 C.3     1  UNL1        0.1830
     38 H          19.5384   71.7978  -10.4034 H       1  UNL1        0.2105
     39 H          22.3934   70.8555   -6.8069 H       1  UNL1        0.2106
     40 H          18.7923   68.8498   -8.3272 H       1  UNL1        0.2106
     41 O          15.6294   70.2996   -7.9400 O.co2   1  UNL1       -0.5466
     42 O          16.1932   69.0937   -6.0893 O.co2   1  UNL1       -0.5466
     43 C          16.4656   69.9271   -6.9411 C.2     1  UNL1        0.0799
@<TRIPOS>UNITY_ATOM_ATTR
41 1
charge -1
@<TRIPOS>BOND
     1     1     4    1
     2     1    24    1
     3     1     2    1
     4     1     3    2
     5    25    28    1
     6    25    24    1
     7    25    26    1
     8    25    27    2
     9     6    11    1
    10     6    12    1
    11    29    36    1
    12    29    37    1
    13     7     9    1
    14     7    13    1
    15     8    10    1
    16     8    14    1
    17     4     5    1
    18    28    36    1
    19    30    33    1
    20    30    38    1
    21    31    34    1
    22    31    39    1
    23    32    35    1
    24    32    40    1
    25    41    43   ar
    26    15    19    2
    27    42    43   ar
    28    16    22    2
    29    17    12    1
    30    17    19   ar
    31    17    20   ar
    32    18    19   ar
    33    18    22   ar
    34    18    23    1
    35     9    10    1
    36     9    11    1
    37    10    12    1
    38    11     5    1
    39    33    34    1
    40    33    35    1
    41    34    36    1
    42    35    37    1
    43    37    43    1
    44    20    21   ar
    45    21    22   ar
@<TRIPOS>MOLECULE
UDP-glaA
 43 45 0 0 0
SMALL
GASTEIGER

@<TRIPOS>ATOM
      1 P          21.6443   72.2371   -5.7810 P.3     1  UNL1        0.2189
      2 O          20.8681   73.6288   -6.0605 O.3     1  UNL1       -0.4371
      3 O          23.1002   72.3805   -5.4463 O.2     1  UNL1       -0.5170
      4 O          21.3074   71.3351   -7.0803 O.3     1  UNL1       -0.3112
      5 C          20.3061   71.7858   -7.9767 C.3     1  UNL1        0.1811
      6 O          19.0172   69.8485   -7.3768 O.3     1  UNL1       -0.3308
      7 O          18.0203   69.8670  -10.2048 O.3     1  UNL1       -0.3794
      8 O          15.9500   70.9967   -8.8361 O.3     1  UNL1       -0.3779
      9 C          18.3265   70.9668   -9.3478 C.3     1  UNL1        0.1713
     10 C          17.2488   71.1296   -8.2968 C.3     1  UNL1        0.1895
     11 C          19.5370   70.5839   -8.5065 C.3     1  UNL1        0.1764
     12 C          17.5914   70.0188   -7.3186 C.3     1  UNL1        0.2383
     13 H          18.7554   69.7773  -10.8350 H       1  UNL1        0.2105
     14 H          15.8498   71.6731   -9.5280 H       1  UNL1        0.2106
     15 O          16.3270   68.2201   -5.5462 O.2     1  UNL1       -0.2464
     16 O          16.1863   71.3571   -2.1731 O.2     1  UNL1       -0.2670
     17 N          17.2137   70.3386   -5.9717 N.ar    1  UNL1       -0.2551
     18 N          16.2573   69.7835   -3.8679 N.ar    1  UNL1       -0.2743
     19 C          16.5829   69.3635   -5.1643 C.ar    1  UNL1        0.3323
     20 C          17.4687   71.6073   -5.4630 C.ar    1  UNL1        0.0869
     21 C          17.1526   71.9923   -4.2246 C.ar    1  UNL1        0.0795
     22 C          16.4904   71.0343   -3.3173 C.ar    1  UNL1        0.2626
     23 H          15.8024   69.0991   -3.2697 H       1  UNL1        0.1734
     24 O          20.7510   71.5507   -4.6208 O.3     1  UNL1       -0.2703
     25 P          21.0438   71.3331   -3.0462 P.3     1  UNL1        0.2208
     26 O          22.2470   70.2522   -3.0384 O.3     1  UNL1       -0.4371
     27 O          19.8396   70.9261   -2.2462 O.2     1  UNL1       -0.5170
     28 O          21.7300   72.7116   -2.5635 O.3     1  UNL1       -0.2858
     29 O          21.6204   72.2268   -0.2500 O.3     1  UNL1       -0.3226
     30 O          24.5785   75.1440   -0.3896 O.3     1  UNL1       -0.3794
     31 O          22.1827   75.3834   -2.0353 O.3     1  UNL1       -0.3775
     32 O          23.5445   73.4260    1.5103 O.3     1  UNL1       -0.3792
     33 C          23.7931   74.0335   -0.8144 C.3     1  UNL1        0.1718
     34 C          22.3259   74.4462   -0.9733 C.3     1  UNL1        0.1968
     35 C          23.9133   72.9155    0.2249 C.3     1  UNL1        0.1723
     36 C          21.4460   73.2237   -1.2623 C.3     1  UNL1        0.2706
     37 C          22.9684   71.7725   -0.1395 C.3     1  UNL1        0.1830
     38 H          25.4967   74.8367   -0.3000 H       1  UNL1        0.2105
     39 H          21.2392   75.6072   -2.1039 H       1  UNL1        0.2106
     40 H          22.5790   73.5381    1.5327 H       1  UNL1        0.2106
     41 O          21.7000   70.2463    1.1119 O.co2   1  UNL1       -0.5466
     42 O          23.9410   70.3181    1.5244 O.co2   1  UNL1       -0.5466
     43 C          22.9566   70.7143    0.9174 C.2     1  UNL1        0.0799
@<TRIPOS>UNITY_ATOM_ATTR
41 1
charge -1
@<TRIPOS>BOND
     1     1     4    1
     2     1    24    1
     3     1     2    1
     4     1     3    2
     5    25    28    1
     6    25    24    1
     7    25    26    1
     8    25    27    2
     9     6    11    1
    10     6    12    1
    11    29    36    1
    12    29    37    1
    13     7     9    1
    14     7    13    1
    15     8    10    1
    16     8    14    1
    17     4     5    1
    18    28    36    1
    19    30    33    1
    20    30    38    1
    21    31    34    1
    22    31    39    1
    23    32    35    1
    24    32    40    1
    25    41    43   ar
    26    15    19    2
    27    42    43   ar
    28    16    22    2
    29    17    12    1
    30    17    19   ar
    31    17    20   ar
    32    18    19   ar
    33    18    22   ar
    34    18    23    1
    35     9    10    1
    36     9    11    1
    37    10    12    1
    38    11     5    1
    39    33    34    1
    40    33    35    1
    41    34    36    1
    42    35    37    1
    43    37    43    1
    44    20    21   ar
    45    21    22   ar
@<TRIPOS>MOLECULE
UDP-glaA
 43 45 0 0 0
SMALL
GASTEIGER

@<TRIPOS>ATOM
      1 P          21.9252   72.5070   -5.7840 P.3     1  UNL1        0.2189
      2 O          21.3173   73.9537   -5.3904 O.3     1  UNL1       -0.4371
      3 O          23.1250   72.5483   -6.6845 O.2     1  UNL1       -0.5170
      4 O          20.6498   71.6890   -6.3494 O.3     1  UNL1       -0.3112
      5 C          20.1373   72.0311   -7.6259 C.3     1  UNL1        0.1811
      6 O          18.9740   69.9742   -7.1899 O.3     1  UNL1       -0.3308
      7 O          18.1593   70.0411  -10.0749 O.3     1  UNL1       -0.3794
      8 O          15.9222   70.9435   -8.8033 O.3     1  UNL1       -0.3779
      9 C          18.3209   71.1221   -9.1568 C.3     1  UNL1        0.1713
     10 C          17.1694   71.1531   -8.1740 C.3     1  UNL1        0.1895
     11 C          19.5029   70.7977   -8.2527 C.3     1  UNL1        0.1764
     12 C          17.5383   70.0299   -7.2199 C.3     1  UNL1        0.2383
     13 H          18.9374   70.0373  -10.6580 H       1  UNL1        0.2105
     14 H          15.8115   71.6401   -9.4731 H       1  UNL1        0.2106
     15 O          16.2787   68.0710   -5.6225 O.2     1  UNL1       -0.2464
     16 O          15.7097   71.0229   -2.1294 O.2     1  UNL1       -0.2670
     17 N          17.0518   70.2588   -5.8894 N.ar    1  UNL1       -0.2551
     18 N          15.9958   69.5424   -3.8843 N.ar    1  UNL1       -0.2743
     19 C          16.4335   69.2078   -5.1726 C.ar    1  UNL1        0.3323
     20 C          17.1891   71.5143   -5.3076 C.ar    1  UNL1        0.0869
     21 C          16.7669   71.8173   -4.0781 C.ar    1  UNL1        0.0795
     22 C          16.1097   70.7764   -3.2631 C.ar    1  UNL1        0.2626
     23 H          15.5477   68.8024   -3.3507 H       1  UNL1        0.1734
     24 O          22.1876   71.8202   -4.3436 O.3     1  UNL1       -0.2703
     25 P          23.4179   71.9696   -3.3060 P.3     1  UNL1        0.2208
     26 O          24.2070   73.2721   -3.8512 O.3     1  UNL1       -0.4371
     27 O          24.2683   70.7383   -3.1775 O.2     1  UNL1       -0.5170
     28 O          22.7336   72.4541   -1.9273 O.3     1  UNL1       -0.2858
     29 O          22.8598   70.8922   -0.1542 O.3     1  UNL1       -0.3226
     30 O          20.2001   73.7085    1.3537 O.3     1  UNL1       -0.3794
     31 O          20.0491   72.8730   -1.4365 O.3     1  UNL1       -0.3775
     32 O          21.5429   71.4978    2.3232 O.3     1  UNL1       -0.3792
     33 C          21.3065   73.1929    0.6186 C.3     1  UNL1        0.1718
     34 C          20.8251   72.2036   -0.4481 C.3     1  UNL1        0.1968
     35 C          22.2627   72.4933    1.5884 C.3     1  UNL1        0.1723
     36 C          22.0155   71.5155   -1.1276 C.3     1  UNL1        0.2706
     37 C          23.3816   71.8117    0.8038 C.3     1  UNL1        0.1830
     38 H          20.5512   74.3265    2.0173 H       1  UNL1        0.2105
     39 H          19.7756   72.2104   -2.0930 H       1  UNL1        0.2106
     40 H          21.3645   70.7466    1.7324 H       1  UNL1        0.2106
     41 O          23.8221   71.0533    2.9797 O.co2   1  UNL1       -0.5466
     42 O          25.2566   70.3872    1.3378 O.co2   1  UNL1       -0.5466
     43 C          24.2674   71.0069    1.7009 C.2     1  UNL1        0.0799
@<TRIPOS>UNITY_ATOM_ATTR
41 1
charge -1
@<TRIPOS>BOND
     1     1     4    1
     2     1    24    1
     3     1     2    1
     4     1     3    2
     5    25    28    1
     6    25    24    1
     7    25    26    1
     8    25    27    2
     9     6    11    1
    10     6    12    1
    11    29    36    1
    12    29    37    1
    13     7     9    1
    14     7    13    1
    15     8    10    1
    16     8    14    1
    17     4     5    1
    18    28    36    1
    19    30    33    1
    20    30    38    1
    21    31    34    1
    22    31    39    1
    23    32    35    1
    24    32    40    1
    25    41    43   ar
    26    15    19    2
    27    42    43   ar
    28    16    22    2
    29    17    12    1
    30    17    19   ar
    31    17    20   ar
    32    18    19   ar
    33    18    22   ar
    34    18    23    1
    35     9    10    1
    36     9    11    1
    37    10    12    1
    38    11     5    1
    39    33    34    1
    40    33    35    1
    41    34    36    1
    42    35    37    1
    43    37    43    1
    44    20    21   ar
    45    21    22   ar
@<TRIPOS>MOLECULE
UDP-glaA
 43 45 0 0 0
SMALL
GASTEIGER

@<TRIPOS>ATOM
      1 P          22.2752   73.6932   -5.9724 P.3     1  UNL1        0.2189
      2 O          23.2248   74.1642   -7.1946 O.3     1  UNL1       -0.4371
      3 O          21.1371   74.6207   -5.6614 O.2     1  UNL1       -0.5170
      4 O          23.3089   73.4177   -4.7595 O.3     1  UNL1       -0.3112
      5 C          22.8687   73.6397   -3.4306 C.3     1  UNL1        0.1811
      6 O          22.2508   71.7379   -2.0981 O.3     1  UNL1       -0.3308
      7 O          19.4086   72.4494   -2.7364 O.3     1  UNL1       -0.3794
      8 O          19.7165   73.4339   -0.2122 O.3     1  UNL1       -0.3779
      9 C          20.5240   73.3088   -2.5019 C.3     1  UNL1        0.1713
     10 C          20.8661   73.3348   -1.0272 C.3     1  UNL1        0.1895
     11 C          21.7587   72.6508   -3.1039 C.3     1  UNL1        0.1764
     12 C          21.5962   72.0145   -0.8490 C.3     1  UNL1        0.2383
     13 H          19.2515   72.4338   -3.6959 H       1  UNL1        0.2105
     14 H          19.2490   74.2491   -0.4634 H       1  UNL1        0.2106
     15 O          21.8042   70.1375    1.2507 O.2     1  UNL1       -0.2464
     16 O          25.4165   72.3262    3.0944 O.2     1  UNL1       -0.2670
     17 N          22.5816   72.0692    0.1927 N.ar    1  UNL1       -0.2551
     18 N          23.6025   71.2289    2.1677 N.ar    1  UNL1       -0.2743
     19 C          22.5994   71.0776    1.2012 C.ar    1  UNL1        0.3323
     20 C          23.5172   73.0978    0.2085 C.ar    1  UNL1        0.0869
     21 C          24.4677   73.2279    1.1367 C.ar    1  UNL1        0.0795
     22 C          24.5548   72.2347    2.2255 C.ar    1  UNL1        0.2626
     23 H          23.6340   70.5278    2.9029 H       1  UNL1        0.1734
     24 O          21.8283   72.2032   -6.4142 O.3     1  UNL1       -0.2703
     25 P          20.4400   71.4044   -6.1970 P.3     1  UNL1        0.2208
     26 O          19.5031   72.4867   -5.4440 O.3     1  UNL1       -0.4371
     27 O          20.5877   70.0992   -5.4688 O.2     1  UNL1       -0.5170
     28 O          19.8070   71.2749   -7.6757 O.3     1  UNL1       -0.2858
     29 O          18.3128   69.6949   -6.7429 O.3     1  UNL1       -0.3226
     30 O          15.7387   72.1946   -8.8416 O.3     1  UNL1       -0.3794
     31 O          18.3033   71.4099   -9.9873 O.3     1  UNL1       -0.3775
     32 O          15.4889   70.1099   -7.0468 O.3     1  UNL1       -0.3792
     33 C          16.8701   71.8097   -8.0657 C.3     1  UNL1        0.1718
     34 C          17.7282   70.8006   -8.8363 C.3     1  UNL1        0.1968
     35 C          16.3827   71.1888   -6.7537 C.3     1  UNL1        0.1723
     36 C          18.8507   70.2513   -7.9471 C.3     1  UNL1        0.2706
     37 C          17.5743   70.6410   -5.9713 C.3     1  UNL1        0.1830
     38 H          15.2244   72.8301   -8.3151 H       1  UNL1        0.2105
     39 H          18.8434   70.7378  -10.4361 H       1  UNL1        0.2106
     40 H          16.0100   69.3577   -7.3753 H       1  UNL1        0.2106
     41 O          16.0308   70.4906   -4.2110 O.co2   1  UNL1       -0.5466
     42 O          17.6842   68.9226   -4.2788 O.co2   1  UNL1       -0.5466
     43 C          17.1333   69.9102   -4.7432 C.2     1  UNL1        0.0799
@<TRIPOS>UNITY_ATOM_ATTR
41 1
charge -1
@<TRIPOS>BOND
     1     1     4    1
     2     1    24    1
     3     1     2    1
     4     1     3    2
     5    25    28    1
     6    25    24    1
     7    25    26    1
     8    25    27    2
     9     6    11    1
    10     6    12    1
    11    29    36    1
    12    29    37    1
    13     7     9    1
    14     7    13    1
    15     8    10    1
    16     8    14    1
    17     4     5    1
    18    28    36    1
    19    30    33    1
    20    30    38    1
    21    31    34    1
    22    31    39    1
    23    32    35    1
    24    32    40    1
    25    41    43   ar
    26    15    19    2
    27    42    43   ar
    28    16    22    2
    29    17    12    1
    30    17    19   ar
    31    17    20   ar
    32    18    19   ar
    33    18    22   ar
    34    18    23    1
    35     9    10    1
    36     9    11    1
    37    10    12    1
    38    11     5    1
    39    33    34    1
    40    33    35    1
    41    34    36    1
    42    35    37    1
    43    37    43    1
    44    20    21   ar
    45    21    22   ar
@<TRIPOS>MOLECULE
UDP-glaA
 43 45 0 0 0
SMALL
GASTEIGER

@<TRIPOS>ATOM
      1 P          14.9967   70.9251   -1.8164 P.3     1  UNL1        0.2189
      2 O          16.1809   71.8319   -1.1897 O.3     1  UNL1       -0.4371
      3 O          13.9163   71.6931   -2.5200 O.2     1  UNL1       -0.5170
      4 O          14.5125   70.0056   -0.5773 O.3     1  UNL1       -0.3112
      5 C          13.2810   69.3126   -0.6886 C.3     1  UNL1        0.1811
      6 O          11.3136   68.7257    0.5600 O.3     1  UNL1       -0.3308
      7 O          13.1588   68.2099    2.8667 O.3     1  UNL1       -0.3794
      8 O          12.6549   65.6976    1.9338 O.3     1  UNL1       -0.3779
      9 C          13.3668   67.9763    1.4739 C.3     1  UNL1        0.1713
     10 C          12.5715   66.7708    1.0190 C.3     1  UNL1        0.1895
     11 C          12.6995   69.1077    0.7030 C.3     1  UNL1        0.1764
     12 C          11.1671   67.3405    0.9137 C.3     1  UNL1        0.2383
     13 H          13.6551   69.0119    3.1033 H       1  UNL1        0.2105
     14 H          13.5947   65.4648    2.0269 H       1  UNL1        0.2106
     15 O           8.3472   67.4223    0.7836 O.2     1  UNL1       -0.2464
     16 O           8.2620   64.7743   -2.9873 O.2     1  UNL1       -0.2670
     17 N          10.3824   66.6823   -0.0914 N.ar    1  UNL1       -0.2551
     18 N           8.3066   66.1032   -1.0938 N.ar    1  UNL1       -0.2743
     19 C           8.9719   66.7853   -0.0665 C.ar    1  UNL1        0.3323
     20 C          11.0108   65.9439   -1.0881 C.ar    1  UNL1        0.0869
     21 C          10.3625   65.2997   -2.0609 C.ar    1  UNL1        0.0795
     22 C           8.8879   65.3560   -2.1065 C.ar    1  UNL1        0.2626
     23 H           7.2919   66.1629   -1.0954 H       1  UNL1        0.1734
     24 O          15.7987   69.8790   -2.7533 O.3     1  UNL1       -0.2703
     25 P          17.3802   69.5748   -2.8900 P.3     1  UNL1        0.2208
     26 O          17.4817   67.9908   -2.5787 O.3     1  UNL1       -0.4371
     27 O          18.2504   70.4348   -2.0188 O.2     1  UNL1       -0.5170
     28 O          17.6860   69.7010   -4.4694 O.3     1  UNL1       -0.2858
     29 O          18.5356   71.7924   -5.1790 O.3     1  UNL1       -0.3226
     30 O          17.6160   69.9545   -8.7923 O.3     1  UNL1       -0.3794
     31 O          15.8219   69.7085   -6.5061 O.3     1  UNL1       -0.3775
     32 O          18.9196   72.2524   -7.9860 O.3     1  UNL1       -0.3792
     33 C          18.0376   70.0719   -7.4363 C.3     1  UNL1        0.1718
     34 C          16.9038   70.6317   -6.5706 C.3     1  UNL1        0.1968
     35 C          19.2523   71.0020   -7.3741 C.3     1  UNL1        0.1723
     36 C          17.3991   70.9227   -5.1485 C.3     1  UNL1        0.2706
     37 C          19.6318   71.2538   -5.9165 C.3     1  UNL1        0.1830
     38 H          18.3640   69.5997   -9.3024 H       1  UNL1        0.2105
     39 H          15.1347   70.1009   -5.9417 H       1  UNL1        0.2106
     40 H          18.3333   72.7437   -7.3859 H       1  UNL1        0.2106
     41 O          20.2324   73.5189   -5.8062 O.co2   1  UNL1       -0.5466
     42 O          21.9222   71.9913   -5.7171 O.co2   1  UNL1       -0.5466
     43 C          20.7328   72.2598   -5.8036 C.2     1  UNL1        0.0799
@<TRIPOS>UNITY_ATOM_ATTR
41 1
charge -1
@<TRIPOS>BOND
     1     1     4    1
     2     1    24    1
     3     1     2    1
     4     1     3    2
     5    25    28    1
     6    25    24    1
     7    25    26    1
     8    25    27    2
     9     6    11    1
    10     6    12    1
    11    29    36    1
    12    29    37    1
    13     7     9    1
    14     7    13    1
    15     8    10    1
    16     8    14    1
    17     4     5    1
    18    28    36    1
    19    30    33    1
    20    30    38    1
    21    31    34    1
    22    31    39    1
    23    32    35    1
    24    32    40    1
    25    41    43   ar
    26    15    19    2
    27    42    43   ar
    28    16    22    2
    29    17    12    1
    30    17    19   ar
    31    17    20   ar
    32    18    19   ar
    33    18    22   ar
    34    18    23    1
    35     9    10    1
    36     9    11    1
    37    10    12    1
    38    11     5    1
    39    33    34    1
    40    33    35    1
    41    34    36    1
    42    35    37    1
    43    37    43    1
    44    20    21   ar
    45    21    22   ar
@<TRIPOS>MOLECULE
UDP-glaA
 43 45 0 0 0
SMALL
GASTEIGER

@<TRIPOS>ATOM
      1 P          22.5242   72.9294   -4.3073 P.3     1  UNL1        0.2189
      2 O          22.3246   74.3214   -5.1072 O.3     1  UNL1       -0.4371
      3 O          23.8777   72.2996   -4.4608 O.2     1  UNL1       -0.5170
      4 O          21.2701   72.0246   -4.7807 O.3     1  UNL1       -0.3112
      5 C          20.7121   71.1044   -3.8581 C.3     1  UNL1        0.1811
      6 O          18.7195   71.9300   -4.9175 O.3     1  UNL1       -0.3308
      7 O          17.2153   70.6579   -2.6569 O.3     1  UNL1       -0.3794
      8 O          16.8899   68.8558   -4.6773 O.3     1  UNL1       -0.3779
      9 C          18.3929   70.2063   -3.3254 C.3     1  UNL1        0.1713
     10 C          18.0446   69.6693   -4.6976 C.3     1  UNL1        0.1895
     11 C          19.2372   71.4274   -3.6659 C.3     1  UNL1        0.1764
     12 C          17.8451   70.9467   -5.4953 C.3     1  UNL1        0.2383
     13 H          17.4916   71.0279   -1.8012 H       1  UNL1        0.2105
     14 H          17.0598   68.1217   -4.0621 H       1  UNL1        0.2106
     15 O          16.0460   70.0270   -7.4683 O.2     1  UNL1       -0.2464
     16 O          19.2274   70.3611  -10.7857 O.2     1  UNL1       -0.2670
     17 N          18.1763   70.7844   -6.8821 N.ar    1  UNL1       -0.2551
     18 N          17.6316   70.1935   -9.1188 N.ar    1  UNL1       -0.2743
     19 C          17.1998   70.3149   -7.7914 C.ar    1  UNL1        0.3323
     20 C          19.4572   71.0890   -7.3291 C.ar    1  UNL1        0.0869
     21 C          19.8533   70.9684   -8.5981 C.ar    1  UNL1        0.0795
     22 C          18.8947   70.4837   -9.6109 C.ar    1  UNL1        0.2626
     23 H          16.9464   69.8571   -9.7901 H       1  UNL1        0.1734
     24 O          22.1338   73.3250   -2.7887 O.3     1  UNL1       -0.2703
     25 P          22.9249   73.0990   -1.3974 P.3     1  UNL1        0.2208
     26 O          24.0924   74.2172   -1.4485 O.3     1  UNL1       -0.4371
     27 O          23.4189   71.6958   -1.1906 O.2     1  UNL1       -0.5170
     28 O          21.9078   73.6222   -0.2590 O.3     1  UNL1       -0.2858
     29 O          21.7359   72.1680    1.5998 O.3     1  UNL1       -0.3226
     30 O          18.6906   74.8977    2.3447 O.3     1  UNL1       -0.3794
     31 O          19.1633   73.9060   -0.3570 O.3     1  UNL1       -0.3775
     32 O          19.9051   72.8263    3.7102 O.3     1  UNL1       -0.3792
     33 C          19.9489   74.4103    1.8869 C.3     1  UNL1        0.1718
     34 C          19.7472   73.3382    0.8107 C.3     1  UNL1        0.1968
     35 C          20.7142   73.8220    3.0755 C.3     1  UNL1        0.1723
     36 C          21.0842   72.6867    0.4357 C.3     1  UNL1        0.2706
     37 C          22.0028   73.1672    2.5827 C.3     1  UNL1        0.1830
     38 H          18.8663   75.5703    3.0246 H       1  UNL1        0.2105
     39 H          19.0640   73.1940   -1.0112 H       1  UNL1        0.2106
     40 H          19.8892   72.0352    3.1454 H       1  UNL1        0.2106
     41 O          22.5701   73.1392    4.8589 O.co2   1  UNL1       -0.5466
     42 O          23.3522   71.4269    3.5730 O.co2   1  UNL1       -0.5466
     43 C          22.7195   72.4661    3.6926 C.2     1  UNL1        0.0799
@<TRIPOS>UNITY_ATOM_ATTR
41 1
charge -1
@<TRIPOS>BOND
     1     1     4    1
     2     1    24    1
     3     1     2    1
     4     1     3    2
     5    25    28    1
     6    25    24    1
     7    25    26    1
     8    25    27    2
     9     6    11    1
    10     6    12    1
    11    29    36    1
    12    29    37    1
    13     7     9    1
    14     7    13    1
    15     8    10    1
    16     8    14    1
    17     4     5    1
    18    28    36    1
    19    30    33    1
    20    30    38    1
    21    31    34    1
    22    31    39    1
    23    32    35    1
    24    32    40    1
    25    41    43   ar
    26    15    19    2
    27    42    43   ar
    28    16    22    2
    29    17    12    1
    30    17    19   ar
    31    17    20   ar
    32    18    19   ar
    33    18    22   ar
    34    18    23    1
    35     9    10    1
    36     9    11    1
    37    10    12    1
    38    11     5    1
    39    33    34    1
    40    33    35    1
    41    34    36    1
    42    35    37    1
    43    37    43    1
    44    20    21   ar
    45    21    22   ar
@<TRIPOS>MOLECULE
UDP-glaA
 43 45 0 0 0
SMALL
GASTEIGER

@<TRIPOS>ATOM
      1 P          23.4273   72.2414   -3.5053 P.3     1  UNL1        0.2189
      2 O          24.1372   70.8327   -3.1462 O.3     1  UNL1       -0.4371
      3 O          24.3430   73.2842   -4.0764 O.2     1  UNL1       -0.5170
      4 O          22.6605   72.6501   -2.1413 O.3     1  UNL1       -0.3112
      5 C          23.4133   72.7485   -0.9443 C.3     1  UNL1        0.1811
      6 O          24.4320   71.2552    0.6389 O.3     1  UNL1       -0.3308
      7 O          21.6673   70.2147    1.1537 O.3     1  UNL1       -0.3794
      8 O          22.0827   71.8765    3.2754 O.3     1  UNL1       -0.3779
      9 C          22.0920   71.5469    0.8666 C.3     1  UNL1        0.1713
     10 C          22.7745   72.1524    2.0750 C.3     1  UNL1        0.1895
     11 C          23.2335   71.4697   -0.1387 C.3     1  UNL1        0.1764
     12 C          24.1438   71.4962    2.0261 C.3     1  UNL1        0.2383
     13 H          21.2723   69.8550    0.3411 H       1  UNL1        0.2105
     14 H          21.1827   72.2338    3.1833 H       1  UNL1        0.2106
     15 O          26.8289   70.6969    2.3819 O.2     1  UNL1       -0.2464
     16 O          28.0018   74.7844    4.1582 O.2     1  UNL1       -0.2670
     17 N          25.1719   72.3312    2.5785 N.ar    1  UNL1       -0.2551
     18 N          27.4111   72.7327    3.2667 N.ar    1  UNL1       -0.2743
     19 C          26.4888   71.8335    2.7155 C.ar    1  UNL1        0.3323
     20 C          24.8709   73.6285    2.9784 C.ar    1  UNL1        0.0869
     21 C          25.7616   74.4738    3.5018 C.ar    1  UNL1        0.0795
     22 C          27.1589   74.0318    3.6795 C.ar    1  UNL1        0.2626
     23 H          28.3640   72.3962    3.3751 H       1  UNL1        0.1734
     24 O          22.2178   71.7987   -4.4832 O.3     1  UNL1       -0.2703
     25 P          21.3410   72.6528   -5.5388 P.3     1  UNL1        0.2208
     26 O          21.7033   71.9707   -6.9599 O.3     1  UNL1       -0.4371
     27 O          21.5815   74.1343   -5.4829 O.2     1  UNL1       -0.5170
     28 O          19.8148   72.2139   -5.2524 O.3     1  UNL1       -0.2858
     29 O          19.0308   69.9949   -5.0057 O.3     1  UNL1       -0.3226
     30 O          15.6301   71.9766   -6.3428 O.3     1  UNL1       -0.3794
     31 O          18.2425   72.5756   -7.4929 O.3     1  UNL1       -0.3775
     32 O          16.2321   69.4660   -5.3608 O.3     1  UNL1       -0.3792
     33 C          16.8634   71.7786   -5.6572 C.3     1  UNL1        0.1718
     34 C          17.9826   71.4558   -6.6530 C.3     1  UNL1        0.1968
     35 C          16.6980   70.6258   -4.6633 C.3     1  UNL1        0.1723
     36 C          19.2719   71.0731   -5.9158 C.3     1  UNL1        0.2706
     37 C          18.0457   70.3045   -4.0210 C.3     1  UNL1        0.1830
     38 H          14.9518   72.1753   -5.6750 H       1  UNL1        0.2105
     39 H          18.9619   72.3280   -8.0978 H       1  UNL1        0.2106
     40 H          16.9685   69.1014   -5.8804 H       1  UNL1        0.2106
     41 O          17.8987   69.4645   -1.8355 O.co2   1  UNL1       -0.5466
     42 O          17.9392   67.9424   -3.5321 O.co2   1  UNL1       -0.5466
     43 C          17.9583   69.0998   -3.1389 C.2     1  UNL1        0.0799
@<TRIPOS>UNITY_ATOM_ATTR
41 1
charge -1
@<TRIPOS>BOND
     1     1     4    1
     2     1    24    1
     3     1     2    1
     4     1     3    2
     5    25    28    1
     6    25    24    1
     7    25    26    1
     8    25    27    2
     9     6    11    1
    10     6    12    1
    11    29    36    1
    12    29    37    1
    13     7     9    1
    14     7    13    1
    15     8    10    1
    16     8    14    1
    17     4     5    1
    18    28    36    1
    19    30    33    1
    20    30    38    1
    21    31    34    1
    22    31    39    1
    23    32    35    1
    24    32    40    1
    25    41    43   ar
    26    15    19    2
    27    42    43   ar
    28    16    22    2
    29    17    12    1
    30    17    19   ar
    31    17    20   ar
    32    18    19   ar
    33    18    22   ar
    34    18    23    1
    35     9    10    1
    36     9    11    1
    37    10    12    1
    38    11     5    1
    39    33    34    1
    40    33    35    1
    41    34    36    1
    42    35    37    1
    43    37    43    1
    44    20    21   ar
    45    21    22   ar
@<TRIPOS>MOLECULE
UDP-glaA
 43 45 0 0 0
SMALL
GASTEIGER

@<TRIPOS>ATOM
      1 P          15.6228   71.0507   -2.5733 P.3     1  UNL1        0.2189
      2 O          16.6843   71.5587   -1.4631 O.3     1  UNL1       -0.4371
      3 O          14.4796   71.9880   -2.8315 O.2     1  UNL1       -0.5170
      4 O          15.2163   69.5672   -2.0737 O.3     1  UNL1       -0.3112
      5 C          14.5983   69.4249   -0.8060 C.3     1  UNL1        0.1811
      6 O          12.5513   68.2388   -0.3846 O.3     1  UNL1       -0.3308
      7 O          11.1540   70.8370   -0.9215 O.3     1  UNL1       -0.3794
      8 O          11.1520   70.7115    1.8025 O.3     1  UNL1       -0.3779
      9 C          12.4059   70.6010   -0.2774 C.3     1  UNL1        0.1713
     10 C          12.1845   70.0396    1.1112 C.3     1  UNL1        0.1895
     11 C          13.0870   69.4379   -0.9866 C.3     1  UNL1        0.1764
     12 C          11.8413   68.5897    0.8146 C.3     1  UNL1        0.2383
     13 H          11.3458   71.1581   -1.8191 H       1  UNL1        0.2105
     14 H          11.3982   71.6511    1.8550 H       1  UNL1        0.2106
     15 O          11.2631   65.8263    0.8855 O.2     1  UNL1       -0.2464
     16 O          13.4272   65.2910    4.9189 O.2     1  UNL1       -0.2670
     17 N          12.2418   67.7044    1.8706 N.ar    1  UNL1       -0.2551
     18 N          12.3407   65.5617    2.8942 N.ar    1  UNL1       -0.2743
     19 C          11.9000   66.3331    1.8108 C.ar    1  UNL1        0.3323
     20 C          12.9653   68.1970    2.9510 C.ar    1  UNL1        0.0869
     21 C          13.3786   67.4484    3.9761 C.ar    1  UNL1        0.0795
     22 C          13.0623   66.0064    3.9911 C.ar    1  UNL1        0.2626
     23 H          12.1058   64.5730    2.8728 H       1  UNL1        0.1734
     24 O          16.5570   70.7571   -3.8602 O.3     1  UNL1       -0.2703
     25 P          17.3172   69.4116   -4.3338 P.3     1  UNL1        0.2208
     26 O          16.2445   68.7060   -5.3174 O.3     1  UNL1       -0.4371
     27 O          17.7894   68.5410   -3.2047 O.2     1  UNL1       -0.5170
     28 O          18.4911   69.9282   -5.3131 O.3     1  UNL1       -0.2858
     29 O          19.7502   71.9317   -5.3286 O.3     1  UNL1       -0.3226
     30 O          19.3822   71.1027   -9.3853 O.3     1  UNL1       -0.3794
     31 O          17.1245   70.7082   -7.5817 O.3     1  UNL1       -0.3775
     32 O          20.7846   72.8995   -7.8250 O.3     1  UNL1       -0.3792
     33 C          19.5162   70.8504   -7.9894 C.3     1  UNL1        0.1718
     34 C          18.3108   71.4108   -7.2269 C.3     1  UNL1        0.1968
     35 C          20.8049   71.5084   -7.4886 C.3     1  UNL1        0.1723
     36 C          18.5256   71.2977   -5.7125 C.3     1  UNL1        0.2706
     37 C          20.8947   71.3713   -5.9703 C.3     1  UNL1        0.1830
     38 H          20.1664   70.7340   -9.8266 H       1  UNL1        0.2105
     39 H          16.3927   71.0904   -7.0687 H       1  UNL1        0.2106
     40 H          20.1562   73.3506   -7.2361 H       1  UNL1        0.2106
     41 O          21.9155   72.3492   -4.0980 O.co2   1  UNL1       -0.5466
     42 O          23.0487   72.4572   -6.0731 O.co2   1  UNL1       -0.5466
     43 C          22.0729   72.1122   -5.4227 C.2     1  UNL1        0.0799
@<TRIPOS>UNITY_ATOM_ATTR
41 1
charge -1
@<TRIPOS>BOND
     1     1     4    1
     2     1    24    1
     3     1     2    1
     4     1     3    2
     5    25    28    1
     6    25    24    1
     7    25    26    1
     8    25    27    2
     9     6    11    1
    10     6    12    1
    11    29    36    1
    12    29    37    1
    13     7     9    1
    14     7    13    1
    15     8    10    1
    16     8    14    1
    17     4     5    1
    18    28    36    1
    19    30    33    1
    20    30    38    1
    21    31    34    1
    22    31    39    1
    23    32    35    1
    24    32    40    1
    25    41    43   ar
    26    15    19    2
    27    42    43   ar
    28    16    22    2
    29    17    12    1
    30    17    19   ar
    31    17    20   ar
    32    18    19   ar
    33    18    22   ar
    34    18    23    1
    35     9    10    1
    36     9    11    1
    37    10    12    1
    38    11     5    1
    39    33    34    1
    40    33    35    1
    41    34    36    1
    42    35    37    1
    43    37    43    1
    44    20    21   ar
    45    21    22   ar
