@<TRIPOS>MOLECULE
UDP-glaA
 43 45 0 0 0
SMALL
GASTEIGER

@<TRIPOS>ATOM
      1 P          23.0187   71.6673   -2.3898 P.3     1  UNL1        0.2189
      2 O          23.4105   73.1352   -1.8338 O.3     1  UNL1       -0.4371
      3 O          24.0932   70.9836   -3.1836 O.2     1  UNL1       -0.5170
      4 O          21.6174   71.9041   -3.1616 O.3     1  UNL1       -0.3112
      5 C          20.8487   70.7725   -3.5326 C.3     1  UNL1        0.1811
      6 O          18.8313   71.6495   -4.4996 O.3     1  UNL1       -0.3308
      7 O          17.3784   70.2277   -2.2953 O.3     1  UNL1       -0.3794
      8 O          17.0238   68.5540   -4.4187 O.3     1  UNL1       -0.3779
      9 C          18.5453   69.8270   -3.0133 C.3     1  UNL1        0.1713
     10 C          18.1733   69.3750   -4.4097 C.3     1  UNL1        0.1895
     11 C          19.3760   71.0727   -3.2922 C.3     1  UNL1        0.1764
     12 C          17.9512   70.6986   -5.1214 C.3     1  UNL1        0.2383
     13 H          17.6693   70.5450   -1.4234 H       1  UNL1        0.2105
     14 H          17.2097   67.7839   -3.8543 H       1  UNL1        0.2106
     15 O          16.1089   69.9269   -7.1178 O.2     1  UNL1       -0.2464
     16 O          19.2341   70.4544  -10.4634 O.2     1  UNL1       -0.2670
     17 N          18.2563   70.6261   -6.5218 N.ar    1  UNL1       -0.2551
     18 N          17.6665   70.1896   -8.7824 N.ar    1  UNL1       -0.2743
     19 C          17.2595   70.2261   -7.4422 C.ar    1  UNL1        0.3323
     20 C          19.5319   70.9492   -6.9709 C.ar    1  UNL1        0.0869
     21 C          19.9043   70.9099   -8.2522 C.ar    1  UNL1        0.0795
     22 C          18.9233   70.5014   -9.2772 C.ar    1  UNL1        0.2626
     23 H          16.9664   69.9042   -9.4618 H       1  UNL1        0.1734
     24 O          22.5673   70.8812   -1.0506 O.3     1  UNL1       -0.2703
     25 P          21.6963   71.3672    0.2214 P.3     1  UNL1        0.2208
     26 O          21.4877   70.0062    1.0700 O.3     1  UNL1       -0.4371
     27 O          20.4214   72.0746   -0.1392 O.2     1  UNL1       -0.5170
     28 O          22.7198   72.2471    1.1057 O.3     1  UNL1       -0.2858
     29 O          24.3340   72.2032    2.8355 O.3     1  UNL1       -0.3226
     30 O          21.3647   74.6058    4.4758 O.3     1  UNL1       -0.3794
     31 O          20.6660   72.2200    2.9507 O.3     1  UNL1       -0.3775
     32 O          23.9438   73.8715    5.1384 O.3     1  UNL1       -0.3792
     33 C          22.1999   74.0309    3.4746 C.3     1  UNL1        0.1718
     34 C          21.9831   72.5156    3.4032 C.3     1  UNL1        0.1968
     35 C          23.6615   74.3356    3.8141 C.3     1  UNL1        0.1723
     36 C          22.9965   71.8660    2.4527 C.3     1  UNL1        0.2706
     37 C          24.5785   73.6088    2.8327 C.3     1  UNL1        0.1830
     38 H          21.5367   75.5628    4.4873 H       1  UNL1        0.2105
     39 H          20.5791   71.2526    2.9126 H       1  UNL1        0.2106
     40 H          24.0013   72.9012    5.1199 H       1  UNL1        0.2106
     41 O          26.7015   72.6230    2.9906 O.co2   1  UNL1       -0.5466
     42 O          26.5173   74.8007    3.6393 O.co2   1  UNL1       -0.5466
     43 C          26.0179   73.7730    3.2046 C.2     1  UNL1        0.0799
@<TRIPOS>UNITY_ATOM_ATTR
41 1
charge -1
@<TRIPOS>BOND
     1     1     4    1
     2     1    24    1
     3     1     2    1
     4     1     3    2
     5    25    28    1
     6    25    24    1
     7    25    26    1
     8    25    27    2
     9     6    11    1
    10     6    12    1
    11    29    36    1
    12    29    37    1
    13     7     9    1
    14     7    13    1
    15     8    10    1
    16     8    14    1
    17     4     5    1
    18    28    36    1
    19    30    33    1
    20    30    38    1
    21    31    34    1
    22    31    39    1
    23    32    35    1
    24    32    40    1
    25    41    43   ar
    26    15    19    2
    27    42    43   ar
    28    16    22    2
    29    17    12    1
    30    17    19   ar
    31    17    20   ar
    32    18    19   ar
    33    18    22   ar
    34    18    23    1
    35     9    10    1
    36     9    11    1
    37    10    12    1
    38    11     5    1
    39    33    34    1
    40    33    35    1
    41    34    36    1
    42    35    37    1
    43    37    43    1
    44    20    21   ar
    45    21    22   ar
@<TRIPOS>MOLECULE
UDP-glaA
 43 45 0 0 0
SMALL
GASTEIGER

@<TRIPOS>ATOM
      1 P          20.6491   71.5542   -2.5867 P.3     1  UNL1        0.2189
      2 O          20.4224   70.5812   -1.3142 O.3     1  UNL1       -0.4371
      3 O          20.0313   72.9160   -2.4603 O.2     1  UNL1       -0.5170
      4 O          20.1512   70.6706   -3.8465 O.3     1  UNL1       -0.3112
      5 C          19.2245   69.6232   -3.6153 C.3     1  UNL1        0.1811
      6 O          17.7162   71.0403   -4.8365 O.3     1  UNL1       -0.3308
      7 O          15.5089   69.6451   -3.3626 O.3     1  UNL1       -0.3794
      8 O          15.4665   68.4192   -5.7980 O.3     1  UNL1       -0.3779
      9 C          16.7428   69.1186   -3.8505 C.3     1  UNL1        0.1713
     10 C          16.6908   68.9683   -5.3563 C.3     1  UNL1        0.1895
     11 C          17.8124   70.1883   -3.6737 C.3     1  UNL1        0.1764
     12 C          16.8911   70.4000   -5.8236 C.3     1  UNL1        0.2383
     13 H          15.6028   69.7605   -2.4017 H       1  UNL1        0.2105
     14 H          15.3633   67.5519   -5.3698 H       1  UNL1        0.2106
     15 O          15.5448   70.5197   -8.3032 O.2     1  UNL1       -0.2464
     16 O          19.5057   70.6794  -10.6535 O.2     1  UNL1       -0.2670
     17 N          17.5453   70.4740   -7.0987 N.ar    1  UNL1       -0.2551
     18 N          17.5181   70.5986   -9.4720 N.ar    1  UNL1       -0.2743
     19 C          16.7769   70.5292   -8.2849 C.ar    1  UNL1        0.3323
     20 C          18.9341   70.4910   -7.1652 C.ar    1  UNL1        0.0869
     21 C          19.6260   70.5580   -8.3047 C.ar    1  UNL1        0.0795
     22 C          18.8993   70.6178   -9.5884 C.ar    1  UNL1        0.2626
     23 H          16.9865   70.6386  -10.3374 H       1  UNL1        0.1734
     24 O          22.2571   71.5574   -2.7584 O.3     1  UNL1       -0.2703
     25 P          23.3189   72.7760   -2.7775 P.3     1  UNL1        0.2208
     26 O          22.3948   74.0686   -3.0794 O.3     1  UNL1       -0.4371
     27 O          24.4554   72.5876   -3.7412 O.2     1  UNL1       -0.5170
     28 O          23.7716   72.9481   -1.2382 O.3     1  UNL1       -0.2858
     29 O          23.7600   71.4794    0.6170 O.3     1  UNL1       -0.3226
     30 O          22.7711   75.1132    2.3767 O.3     1  UNL1       -0.3794
     31 O          21.6362   74.3580   -0.2016 O.3     1  UNL1       -0.3775
     32 O          23.4157   72.5726    3.2485 O.3     1  UNL1       -0.3792
     33 C          23.3938   74.2072    1.4702 C.3     1  UNL1        0.1718
     34 C          22.3363   73.4588    0.6518 C.3     1  UNL1        0.1968
     35 C          24.2401   73.2115    2.2682 C.3     1  UNL1        0.1723
     36 C          22.9856   72.3621   -0.2015 C.3     1  UNL1        0.2706
     37 C          24.8013   72.1465    1.3286 C.3     1  UNL1        0.1830
     38 H          23.4762   75.5617    2.8739 H       1  UNL1        0.2105
     39 H          20.9863   73.8390   -0.7047 H       1  UNL1        0.2106
     40 H          22.8354   71.9366    2.7971 H       1  UNL1        0.2106
     41 O          24.6633   70.1389    2.5346 O.co2   1  UNL1       -0.5466
     42 O          26.7360   71.0500    2.2690 O.co2   1  UNL1       -0.5466
     43 C          25.5281   71.0791    2.0833 C.2     1  UNL1        0.0799
@<TRIPOS>UNITY_ATOM_ATTR
41 1
charge -1
@<TRIPOS>BOND
     1     1     4    1
     2     1    24    1
     3     1     2    1
     4     1     3    2
     5    25    28    1
     6    25    24    1
     7    25    26    1
     8    25    27    2
     9     6    11    1
    10     6    12    1
    11    29    36    1
    12    29    37    1
    13     7     9    1
    14     7    13    1
    15     8    10    1
    16     8    14    1
    17     4     5    1
    18    28    36    1
    19    30    33    1
    20    30    38    1
    21    31    34    1
    22    31    39    1
    23    32    35    1
    24    32    40    1
    25    41    43   ar
    26    15    19    2
    27    42    43   ar
    28    16    22    2
    29    17    12    1
    30    17    19   ar
    31    17    20   ar
    32    18    19   ar
    33    18    22   ar
    34    18    23    1
    35     9    10    1
    36     9    11    1
    37    10    12    1
    38    11     5    1
    39    33    34    1
    40    33    35    1
    41    34    36    1
    42    35    37    1
    43    37    43    1
    44    20    21   ar
    45    21    22   ar
@<TRIPOS>MOLECULE
UDP-glaA
 43 45 0 0 0
SMALL
GASTEIGER

@<TRIPOS>ATOM
      1 P          22.1474   71.3437   -2.8269 P.3     1  UNL1        0.2189
      2 O          23.5960   70.7860   -3.2827 O.3     1  UNL1       -0.4371
      3 O          21.7264   70.9533   -1.4404 O.2     1  UNL1       -0.5170
      4 O          21.1581   70.8789   -4.0189 O.3     1  UNL1       -0.3112
      5 C          20.1854   69.8853   -3.7433 C.3     1  UNL1        0.1811
      6 O          18.5723   71.3137   -4.8072 O.3     1  UNL1       -0.3308
      7 O          16.5831   70.2080   -2.8548 O.3     1  UNL1       -0.3794
      8 O          16.0316   68.8039   -5.1264 O.3     1  UNL1       -0.3779
      9 C          17.6755   69.5534   -3.4996 C.3     1  UNL1        0.1713
     10 C          17.3462   69.2913   -4.9541 C.3     1  UNL1        0.1895
     11 C          18.8227   70.5495   -3.6070 C.3     1  UNL1        0.1764
     12 C          17.5466   70.6632   -5.5753 C.3     1  UNL1        0.2383
     13 H          16.8541   70.3900   -1.9389 H       1  UNL1        0.2105
     14 H          15.9539   67.9828   -4.6108 H       1  UNL1        0.2106
     15 O          15.7918   70.3490   -7.7657 O.2     1  UNL1       -0.2464
     16 O          19.2682   70.3866  -10.7909 O.2     1  UNL1       -0.2670
     17 N          17.9657   70.5884   -6.9458 N.ar    1  UNL1       -0.2551
     18 N          17.5241   70.3674   -9.2706 N.ar    1  UNL1       -0.2743
     19 C          17.0043   70.4292   -7.9710 C.ar    1  UNL1        0.3323
     20 C          19.3169   70.6725   -7.2629 C.ar    1  UNL1        0.0869
     21 C          19.7967   70.6124   -8.5071 C.ar    1  UNL1        0.0795
     22 C          18.8592   70.4460   -9.6354 C.ar    1  UNL1        0.2626
     23 H          16.8512   70.2525  -10.0237 H       1  UNL1        0.1734
     24 O          22.2809   72.9374   -3.0666 O.3     1  UNL1       -0.2703
     25 P          23.5684   73.9132   -3.0148 P.3     1  UNL1        0.2208
     26 O          22.9167   75.3917   -3.0887 O.3     1  UNL1       -0.4371
     27 O          24.5954   73.6347   -4.0747 O.2     1  UNL1       -0.5170
     28 O          24.1185   73.7845   -1.5032 O.3     1  UNL1       -0.2858
     29 O          22.9814   72.9565    0.3996 O.3     1  UNL1       -0.3226
     30 O          25.5967   75.7160    2.0802 O.3     1  UNL1       -0.3794
     31 O          24.2070   76.3191   -0.4120 O.3     1  UNL1       -0.3775
     32 O          23.8593   73.7784    3.0058 O.3     1  UNL1       -0.3792
     33 C          25.1219   74.7226    1.1757 C.3     1  UNL1        0.1718
     34 C          23.8770   75.2244    0.4363 C.3     1  UNL1        0.1968
     35 C          24.7867   73.4540    1.9649 C.3     1  UNL1        0.1723
     36 C          23.2593   74.1040   -0.4097 C.3     1  UNL1        0.2706
     37 C          24.1433   72.4268    1.0360 C.3     1  UNL1        0.1830
     38 H          26.3817   75.3552    2.5265 H       1  UNL1        0.2105
     39 H          23.3924   76.5955   -0.8646 H       1  UNL1        0.2106
     40 H          22.9868   73.9317    2.6054 H       1  UNL1        0.2106
     41 O          24.6487   70.2729    1.8163 O.co2   1  UNL1       -0.5466
     42 O          22.5841   71.1003    2.3163 O.co2   1  UNL1       -0.5466
     43 C          23.6810   71.2208    1.7902 C.2     1  UNL1        0.0799
@<TRIPOS>UNITY_ATOM_ATTR
41 1
charge -1
@<TRIPOS>BOND
     1     1     4    1
     2     1    24    1
     3     1     2    1
     4     1     3    2
     5    25    28    1
     6    25    24    1
     7    25    26    1
     8    25    27    2
     9     6    11    1
    10     6    12    1
    11    29    36    1
    12    29    37    1
    13     7     9    1
    14     7    13    1
    15     8    10    1
    16     8    14    1
    17     4     5    1
    18    28    36    1
    19    30    33    1
    20    30    38    1
    21    31    34    1
    22    31    39    1
    23    32    35    1
    24    32    40    1
    25    41    43   ar
    26    15    19    2
    27    42    43   ar
    28    16    22    2
    29    17    12    1
    30    17    19   ar
    31    17    20   ar
    32    18    19   ar
    33    18    22   ar
    34    18    23    1
    35     9    10    1
    36     9    11    1
    37    10    12    1
    38    11     5    1
    39    33    34    1
    40    33    35    1
    41    34    36    1
    42    35    37    1
    43    37    43    1
    44    20    21   ar
    45    21    22   ar
@<TRIPOS>MOLECULE
UDP-glaA
 43 45 0 0 0
SMALL
GASTEIGER

@<TRIPOS>ATOM
      1 P          21.0804   73.2623   -4.0024 P.3     1  UNL1        0.2189
      2 O          20.7513   74.1810   -2.7121 O.3     1  UNL1       -0.4371
      3 O          21.7784   73.9736   -5.1245 O.2     1  UNL1       -0.5170
      4 O          19.6579   72.5886   -4.3742 O.3     1  UNL1       -0.3112
      5 C          19.2089   71.4860   -3.6049 C.3     1  UNL1        0.1811
      6 O          17.3266   71.7608   -5.0731 O.3     1  UNL1       -0.3308
      7 O          15.8089   70.0370   -3.1452 O.3     1  UNL1       -0.3794
      8 O          16.4247   68.2914   -5.1475 O.3     1  UNL1       -0.3779
      9 C          17.1771   69.9571   -3.5444 C.3     1  UNL1        0.1713
     10 C          17.2832   69.3951   -4.9464 C.3     1  UNL1        0.1895
     11 C          17.6959   71.3770   -3.7302 C.3     1  UNL1        0.1764
     12 C          16.9014   70.5944   -5.7971 C.3     1  UNL1        0.2383
     13 H          15.7884   70.4378   -2.2595 H       1  UNL1        0.2105
     14 H          16.6636   67.6118   -4.4938 H       1  UNL1        0.2106
     15 O          15.5295   70.6074   -8.2655 O.2     1  UNL1       -0.2464
     16 O          19.4655   70.5437  -10.6618 O.2     1  UNL1       -0.2670
     17 N          17.5424   70.5822   -7.0810 N.ar    1  UNL1       -0.2551
     18 N          17.4904   70.5751   -9.4571 N.ar    1  UNL1       -0.2743
     19 C          16.7617   70.5892   -8.2605 C.ar    1  UNL1        0.3323
     20 C          18.9303   70.5631   -7.1627 C.ar    1  UNL1        0.0869
     21 C          19.6103   70.5504   -8.3113 C.ar    1  UNL1        0.0795
     22 C          18.8703   70.5557   -9.5887 C.ar    1  UNL1        0.2626
     23 H          16.9498   70.5793  -10.3179 H       1  UNL1        0.1734
     24 O          21.9112   72.0290   -3.3667 O.3     1  UNL1       -0.2703
     25 P          23.3474   71.9878   -2.6264 P.3     1  UNL1        0.2208
     26 O          24.0217   73.3969   -3.0459 O.3     1  UNL1       -0.4371
     27 O          24.1769   70.7805   -2.9581 O.2     1  UNL1       -0.5170
     28 O          23.0039   72.1503   -1.0581 O.3     1  UNL1       -0.2858
     29 O          24.3649   71.1528    0.6008 O.3     1  UNL1       -0.3226
     30 O          20.8247   71.8316    2.6710 O.3     1  UNL1       -0.3794
     31 O          20.7704   70.8571   -0.0773 O.3     1  UNL1       -0.3775
     32 O          23.3880   71.0141    3.2962 O.3     1  UNL1       -0.3792
     33 C          21.8711   72.0530    1.7295 C.3     1  UNL1        0.1718
     34 C          21.9434   70.8949    0.7286 C.3     1  UNL1        0.1968
     35 C          23.1978   72.1771    2.4838 C.3     1  UNL1        0.1723
     36 C          23.1707   71.0380   -0.1800 C.3     1  UNL1        0.2706
     37 C          24.3490   72.2725    1.4850 C.3     1  UNL1        0.1830
     38 H          20.8176   72.5860    3.2845 H       1  UNL1        0.2105
     39 H          20.8658   70.1165   -0.6996 H       1  UNL1        0.2106
     40 H          23.6222   70.2684    2.7181 H       1  UNL1        0.2106
     41 O          26.2239   71.0265    2.1454 O.co2   1  UNL1       -0.5466
     42 O          26.2005   73.2383    2.6970 O.co2   1  UNL1       -0.5466
     43 C          25.6753   72.2649    2.1763 C.2     1  UNL1        0.0799
@<TRIPOS>UNITY_ATOM_ATTR
41 1
charge -1
@<TRIPOS>BOND
     1     1     4    1
     2     1    24    1
     3     1     2    1
     4     1     3    2
     5    25    28    1
     6    25    24    1
     7    25    26    1
     8    25    27    2
     9     6    11    1
    10     6    12    1
    11    29    36    1
    12    29    37    1
    13     7     9    1
    14     7    13    1
    15     8    10    1
    16     8    14    1
    17     4     5    1
    18    28    36    1
    19    30    33    1
    20    30    38    1
    21    31    34    1
    22    31    39    1
    23    32    35    1
    24    32    40    1
    25    41    43   ar
    26    15    19    2
    27    42    43   ar
    28    16    22    2
    29    17    12    1
    30    17    19   ar
    31    17    20   ar
    32    18    19   ar
    33    18    22   ar
    34    18    23    1
    35     9    10    1
    36     9    11    1
    37    10    12    1
    38    11     5    1
    39    33    34    1
    40    33    35    1
    41    34    36    1
    42    35    37    1
    43    37    43    1
    44    20    21   ar
    45    21    22   ar
@<TRIPOS>MOLECULE
UDP-glaA
 43 45 0 0 0
SMALL
GASTEIGER

@<TRIPOS>ATOM
      1 P          20.7679   72.9115   -1.4995 P.3     1  UNL1        0.2189
      2 O          19.4541   73.8397   -1.3273 O.3     1  UNL1       -0.4371
      3 O          21.9420   73.5894   -2.1430 O.2     1  UNL1       -0.5170
      4 O          20.2168   71.5923   -2.2555 O.3     1  UNL1       -0.3112
      5 C          19.7322   71.7240   -3.5811 C.3     1  UNL1        0.1811
      6 O          17.7260   71.9471   -4.8848 O.3     1  UNL1       -0.3308
      7 O          16.3943   70.2809   -2.7773 O.3     1  UNL1       -0.3794
      8 O          16.8404   68.4746   -4.7708 O.3     1  UNL1       -0.3779
      9 C          17.7223   70.1922   -3.2933 C.3     1  UNL1        0.1713
     10 C          17.7071   69.5864   -4.6809 C.3     1  UNL1        0.1895
     11 C          18.2147   71.6069   -3.5685 C.3     1  UNL1        0.1764
     12 C          17.2450   70.7573   -5.5316 C.3     1  UNL1        0.2383
     13 H          16.4499   70.7094   -1.9062 H       1  UNL1        0.2105
     14 H          17.1399   67.8167   -4.1199 H       1  UNL1        0.2106
     15 O          15.6827   70.3343   -7.8458 O.2     1  UNL1       -0.2464
     16 O          19.3687   70.5786  -10.6012 O.2     1  UNL1       -0.2670
     17 N          17.7701   70.7063   -6.8661 N.ar    1  UNL1       -0.2551
     18 N          17.5193   70.4557   -9.2163 N.ar    1  UNL1       -0.2743
     19 C          16.9001   70.4876   -7.9598 C.ar    1  UNL1        0.3323
     20 C          19.1338   70.8717   -7.0813 C.ar    1  UNL1        0.0869
     21 C          19.7088   70.8391   -8.2855 C.ar    1  UNL1        0.0795
     22 C          18.8709   70.6147   -9.4801 C.ar    1  UNL1        0.2626
     23 H          16.9133   70.2992  -10.0171 H       1  UNL1        0.1734
     24 O          21.0372   72.3821    0.0047 O.3     1  UNL1       -0.2703
     25 P          22.0787   71.2837    0.5716 P.3     1  UNL1        0.2208
     26 O          23.1809   71.1745   -0.6071 O.3     1  UNL1       -0.4371
     27 O          21.4474   69.9755    0.9532 O.2     1  UNL1       -0.5170
     28 O          22.8448   72.0316    1.7790 O.3     1  UNL1       -0.2858
     29 O          22.1320   73.7001    3.2980 O.3     1  UNL1       -0.3226
     30 O          26.1187   74.7134    2.6990 O.3     1  UNL1       -0.3794
     31 O          24.4587   73.8450    0.4638 O.3     1  UNL1       -0.3775
     32 O          24.0771   75.5129    4.3791 O.3     1  UNL1       -0.3792
     33 C          24.9711   73.8806    2.8392 C.3     1  UNL1        0.1718
     34 C          23.9455   74.1950    1.7448 C.3     1  UNL1        0.1968
     35 C          24.3530   74.1174    4.2199 C.3     1  UNL1        0.1723
     36 C          22.6396   73.4282    1.9876 C.3     1  UNL1        0.2706
     37 C          23.0430   73.3412    4.3358 C.3     1  UNL1        0.1830
     38 H          26.7380   74.4819    3.4120 H       1  UNL1        0.2105
     39 H          23.7733   74.0524   -0.1935 H       1  UNL1        0.2106
     40 H          23.3030   75.7387    3.8360 H       1  UNL1        0.2106
     41 O          23.1582   73.4313    6.6772 O.co2   1  UNL1       -0.5466
     42 O          21.1839   74.0358    5.7110 O.co2   1  UNL1       -0.5466
     43 C          22.3386   73.6450    5.6198 C.2     1  UNL1        0.0799
@<TRIPOS>UNITY_ATOM_ATTR
41 1
charge -1
@<TRIPOS>BOND
     1     1     4    1
     2     1    24    1
     3     1     2    1
     4     1     3    2
     5    25    28    1
     6    25    24    1
     7    25    26    1
     8    25    27    2
     9     6    11    1
    10     6    12    1
    11    29    36    1
    12    29    37    1
    13     7     9    1
    14     7    13    1
    15     8    10    1
    16     8    14    1
    17     4     5    1
    18    28    36    1
    19    30    33    1
    20    30    38    1
    21    31    34    1
    22    31    39    1
    23    32    35    1
    24    32    40    1
    25    41    43   ar
    26    15    19    2
    27    42    43   ar
    28    16    22    2
    29    17    12    1
    30    17    19   ar
    31    17    20   ar
    32    18    19   ar
    33    18    22   ar
    34    18    23    1
    35     9    10    1
    36     9    11    1
    37    10    12    1
    38    11     5    1
    39    33    34    1
    40    33    35    1
    41    34    36    1
    42    35    37    1
    43    37    43    1
    44    20    21   ar
    45    21    22   ar
@<TRIPOS>MOLECULE
UDP-glaA
 43 45 0 0 0
SMALL
GASTEIGER

@<TRIPOS>ATOM
      1 P          20.9517   75.0769   -3.4669 P.3     1  UNL1        0.2189
      2 O          20.4774   75.1874   -1.9241 O.3     1  UNL1       -0.4371
      3 O          20.8082   76.3395   -4.2652 O.2     1  UNL1       -0.5170
      4 O          20.1461   73.7931   -4.0312 O.3     1  UNL1       -0.3112
      5 C          18.9515   74.0108   -4.7625 C.3     1  UNL1        0.1811
      6 O          17.2749   72.4490   -5.4863 O.3     1  UNL1       -0.3308
      7 O          17.4584   71.2647   -2.7376 O.3     1  UNL1       -0.3794
      8 O          18.9416   69.5324   -4.2326 O.3     1  UNL1       -0.3779
      9 C          18.4901   71.8222   -3.5516 C.3     1  UNL1        0.1713
     10 C          18.8448   70.8706   -4.6747 C.3     1  UNL1        0.1895
     11 C          17.9025   73.0051   -4.3099 C.3     1  UNL1        0.1764
     12 C          17.6947   71.0836   -5.6442 C.3     1  UNL1        0.2383
     13 H          17.2378   71.9239   -2.0576 H       1  UNL1        0.2105
     14 H          19.6223   69.5020   -3.5385 H       1  UNL1        0.2106
     15 O          15.9333   70.2546   -7.6900 O.2     1  UNL1       -0.2464
     16 O          19.2911   70.2889  -10.8463 O.2     1  UNL1       -0.2670
     17 N          18.0815   70.8688   -7.0093 N.ar    1  UNL1       -0.2551
     18 N          17.6066   70.2717   -9.2602 N.ar    1  UNL1       -0.2743
     19 C          17.1197   70.4517   -7.9589 C.ar    1  UNL1        0.3323
     20 C          19.4018   71.0709   -7.3956 C.ar    1  UNL1        0.0869
     21 C          19.8504   70.8954   -8.6405 C.ar    1  UNL1        0.0795
     22 C          18.9104   70.4598   -9.6923 C.ar    1  UNL1        0.2626
     23 H          16.9329   69.9715   -9.9596 H       1  UNL1        0.1734
     24 O          22.4676   74.5279   -3.3414 O.3     1  UNL1       -0.2703
     25 P          23.0393   73.0900   -2.8744 P.3     1  UNL1        0.2208
     26 O          24.2111   72.7900   -3.9482 O.3     1  UNL1       -0.4371
     27 O          21.9959   72.0139   -2.7785 O.2     1  UNL1       -0.5170
     28 O          23.8179   73.3886   -1.4929 O.3     1  UNL1       -0.2858
     29 O          22.1967   73.2819    0.2275 O.3     1  UNL1       -0.3226
     30 O          25.6796   74.0584    2.3597 O.3     1  UNL1       -0.3794
     31 O          25.1611   75.4078   -0.1733 O.3     1  UNL1       -0.3775
     32 O          23.0661   73.3961    2.9606 O.3     1  UNL1       -0.3792
     33 C          24.8464   73.5269    1.3332 C.3     1  UNL1        0.1718
     34 C          24.1837   74.6600    0.5425 C.3     1  UNL1        0.1968
     35 C          23.7758   72.6396    1.9742 C.3     1  UNL1        0.1723
     36 C          23.1556   74.1014   -0.4491 C.3     1  UNL1        0.2706
     37 C          22.7877   72.1750    0.9066 C.3     1  UNL1        0.1830
     38 H          26.0752   73.3077    2.8345 H       1  UNL1        0.2105
     39 H          24.6951   76.1053   -0.6644 H       1  UNL1        0.2106
     40 H          22.4781   74.0224    2.5054 H       1  UNL1        0.2106
     41 O          21.6683   70.1218    1.0939 O.co2   1  UNL1       -0.5466
     42 O          20.8184   71.8788    2.2718 O.co2   1  UNL1       -0.5466
     43 C          21.6509   71.4116    1.5082 C.2     1  UNL1        0.0799
@<TRIPOS>UNITY_ATOM_ATTR
41 1
charge -1
@<TRIPOS>BOND
     1     1     4    1
     2     1    24    1
     3     1     2    1
     4     1     3    2
     5    25    28    1
     6    25    24    1
     7    25    26    1
     8    25    27    2
     9     6    11    1
    10     6    12    1
    11    29    36    1
    12    29    37    1
    13     7     9    1
    14     7    13    1
    15     8    10    1
    16     8    14    1
    17     4     5    1
    18    28    36    1
    19    30    33    1
    20    30    38    1
    21    31    34    1
    22    31    39    1
    23    32    35    1
    24    32    40    1
    25    41    43   ar
    26    15    19    2
    27    42    43   ar
    28    16    22    2
    29    17    12    1
    30    17    19   ar
    31    17    20   ar
    32    18    19   ar
    33    18    22   ar
    34    18    23    1
    35     9    10    1
    36     9    11    1
    37    10    12    1
    38    11     5    1
    39    33    34    1
    40    33    35    1
    41    34    36    1
    42    35    37    1
    43    37    43    1
    44    20    21   ar
    45    21    22   ar
@<TRIPOS>MOLECULE
UDP-glaA
 43 45 0 0 0
SMALL
GASTEIGER

@<TRIPOS>ATOM
      1 P          22.8004   71.4474   -2.7509 P.3     1  UNL1        0.2189
      2 O          22.7693   73.0384   -2.4591 O.3     1  UNL1       -0.4371
      3 O          24.1646   70.8777   -3.0088 O.2     1  UNL1       -0.5170
      4 O          21.7194   71.2475   -3.9370 O.3     1  UNL1       -0.3112
      5 C          21.6208   72.2452   -4.9390 C.3     1  UNL1        0.1811
      6 O          20.5290   70.4179   -6.0540 O.3     1  UNL1       -0.3308
      7 O          20.8692   72.0000   -8.5784 O.3     1  UNL1       -0.3794
      8 O          18.2585   72.4564   -7.9368 O.3     1  UNL1       -0.3779
      9 C          20.5922   72.4588   -7.2554 C.3     1  UNL1        0.1713
     10 C          19.1547   72.1597   -6.8859 C.3     1  UNL1        0.1895
     11 C          21.3618   71.5763   -6.2815 C.3     1  UNL1        0.1764
     12 C          19.2124   70.6749   -6.5695 C.3     1  UNL1        0.2383
     13 H          21.8087   72.1772   -8.7559 H       1  UNL1        0.2105
     14 H          18.3612   73.3996   -8.1515 H       1  UNL1        0.2106
     15 O          16.5627   69.8992   -7.1637 O.2     1  UNL1       -0.2464
     16 O          15.5749   69.2037   -2.7163 O.2     1  UNL1       -0.2670
     17 N          18.2418   70.2857   -5.5867 N.ar    1  UNL1       -0.2551
     18 N          16.0724   69.5539   -4.9486 N.ar    1  UNL1       -0.2743
     19 C          16.9378   69.9146   -5.9899 C.ar    1  UNL1        0.3323
     20 C          18.5856   70.2745   -4.2395 C.ar    1  UNL1        0.0869
     21 C          17.7493   69.9276   -3.2586 C.ar    1  UNL1        0.0795
     22 C          16.3684   69.5276   -3.5946 C.ar    1  UNL1        0.2626
     23 H          15.1294   69.2839   -5.2150 H       1  UNL1        0.1734
     24 O          22.0444   70.8279   -1.4624 O.3     1  UNL1       -0.2703
     25 P          22.1896   71.1594    0.1129 P.3     1  UNL1        0.2208
     26 O          23.7623   71.4996    0.2771 O.3     1  UNL1       -0.4371
     27 O          21.6930   70.0701    1.0199 O.2     1  UNL1       -0.5170
     28 O          21.4430   72.5773    0.3030 O.3     1  UNL1       -0.2858
     29 O          21.0814   72.6961    2.6384 O.3     1  UNL1       -0.3226
     30 O          19.8357   76.4542    1.3719 O.3     1  UNL1       -0.3794
     31 O          19.1730   74.0736   -0.1772 O.3     1  UNL1       -0.3775
     32 O          20.2834   75.2003    3.7920 O.3     1  UNL1       -0.3792
     33 C          20.6002   75.2520    1.3979 C.3     1  UNL1        0.1718
     34 C          19.6979   74.0393    1.1457 C.3     1  UNL1        0.1968
     35 C          21.2778   75.1256    2.7651 C.3     1  UNL1        0.1723
     36 C          20.4768   72.7327    1.3415 C.3     1  UNL1        0.2706
     37 C          21.9859   73.7762    2.8641 C.3     1  UNL1        0.1830
     38 H          20.4454   77.1933    1.5381 H       1  UNL1        0.2105
     39 H          18.6178   73.2842   -0.2931 H       1  UNL1        0.2106
     40 H          19.7861   74.3650    3.8018 H       1  UNL1        0.2106
     41 O          22.6741   72.2302    4.4889 O.co2   1  UNL1       -0.5466
     42 O          22.8688   74.4408    5.0108 O.co2   1  UNL1       -0.5466
     43 C          22.5528   73.5546    4.2303 C.2     1  UNL1        0.0799
@<TRIPOS>UNITY_ATOM_ATTR
41 1
charge -1
@<TRIPOS>BOND
     1     1     4    1
     2     1    24    1
     3     1     2    1
     4     1     3    2
     5    25    28    1
     6    25    24    1
     7    25    26    1
     8    25    27    2
     9     6    11    1
    10     6    12    1
    11    29    36    1
    12    29    37    1
    13     7     9    1
    14     7    13    1
    15     8    10    1
    16     8    14    1
    17     4     5    1
    18    28    36    1
    19    30    33    1
    20    30    38    1
    21    31    34    1
    22    31    39    1
    23    32    35    1
    24    32    40    1
    25    41    43   ar
    26    15    19    2
    27    42    43   ar
    28    16    22    2
    29    17    12    1
    30    17    19   ar
    31    17    20   ar
    32    18    19   ar
    33    18    22   ar
    34    18    23    1
    35     9    10    1
    36     9    11    1
    37    10    12    1
    38    11     5    1
    39    33    34    1
    40    33    35    1
    41    34    36    1
    42    35    37    1
    43    37    43    1
    44    20    21   ar
    45    21    22   ar
@<TRIPOS>MOLECULE
UDP-glaA
 43 45 0 0 0
SMALL
GASTEIGER

@<TRIPOS>ATOM
      1 P          20.2408   74.1306   -3.1285 P.3     1  UNL1        0.2189
      2 O          18.8004   73.6633   -2.5589 O.3     1  UNL1       -0.4371
      3 O          20.4466   75.6159   -3.1873 O.2     1  UNL1       -0.5170
      4 O          20.3764   73.3459   -4.5361 O.3     1  UNL1       -0.3112
      5 C          21.5212   72.5390   -4.7543 C.3     1  UNL1        0.1811
      6 O          20.5940   70.5939   -5.8179 O.3     1  UNL1       -0.3308
      7 O          20.9305   72.0767   -8.4023 O.3     1  UNL1       -0.3794
      8 O          18.2726   72.3885   -7.8785 O.3     1  UNL1       -0.3779
      9 C          20.5728   72.5768   -7.1140 C.3     1  UNL1        0.1713
     10 C          19.1441   72.2006   -6.7827 C.3     1  UNL1        0.1895
     11 C          21.3588   71.7931   -6.0711 C.3     1  UNL1        0.1764
     12 C          19.2848   70.7391   -6.3925 C.3     1  UNL1        0.2383
     13 H          21.8629   72.3074   -8.5541 H       1  UNL1        0.2105
     14 H          18.3228   73.3255   -8.1350 H       1  UNL1        0.2106
     15 O          16.7148   69.7662   -7.0437 O.2     1  UNL1       -0.2464
     16 O          15.6010   69.2098   -2.6066 O.2     1  UNL1       -0.2670
     17 N          18.3034   70.3323   -5.4278 N.ar    1  UNL1       -0.2551
     18 N          16.1617   69.4903   -4.8338 N.ar    1  UNL1       -0.2743
     19 C          17.0422   69.8591   -5.8593 C.ar    1  UNL1        0.3323
     20 C          18.5946   70.4044   -4.0701 C.ar    1  UNL1        0.0869
     21 C          17.7445   70.0485   -3.1044 C.ar    1  UNL1        0.0795
     22 C          16.4059   69.5446   -3.4703 C.ar    1  UNL1        0.2626
     23 H          15.2487   69.1477   -5.1206 H       1  UNL1        0.1734
     24 O          21.2811   73.3438   -2.1725 O.3     1  UNL1       -0.2703
     25 P          21.0333   72.4216   -0.8683 P.3     1  UNL1        0.2208
     26 O          20.9352   70.9286   -1.4827 O.3     1  UNL1       -0.4371
     27 O          19.8485   72.8306   -0.0408 O.2     1  UNL1       -0.5170
     28 O          22.4394   72.4461   -0.0771 O.3     1  UNL1       -0.2858
     29 O          23.3986   71.6939    1.9512 O.3     1  UNL1       -0.3226
     30 O          24.4775   75.7081    1.9134 O.3     1  UNL1       -0.3794
     31 O          21.8133   74.8820    1.0618 O.3     1  UNL1       -0.3775
     32 O          25.0776   73.4847    3.4386 O.3     1  UNL1       -0.3792
     33 C          24.1740   74.4140    1.4003 C.3     1  UNL1        0.1718
     34 C          22.7300   74.0295    1.7399 C.3     1  UNL1        0.1968
     35 C          25.1439   73.3990    2.0113 C.3     1  UNL1        0.1723
     36 C          22.4477   72.5749    1.3440 C.3     1  UNL1        0.2706
     37 C          24.7458   71.9877    1.5849 C.3     1  UNL1        0.1830
     38 H          25.3994   75.9084    1.6777 H       1  UNL1        0.2105
     39 H          20.9154   74.5953    1.2994 H       1  UNL1        0.2106
     40 H          24.2441   73.0808    3.7340 H       1  UNL1        0.2106
     41 O          24.8283   69.9032    2.6581 O.co2   1  UNL1       -0.5466
     42 O          26.7946   71.0352    2.4364 O.co2   1  UNL1       -0.5466
     43 C          25.5874   70.9534    2.2625 C.2     1  UNL1        0.0799
@<TRIPOS>UNITY_ATOM_ATTR
41 1
charge -1
@<TRIPOS>BOND
     1     1     4    1
     2     1    24    1
     3     1     2    1
     4     1     3    2
     5    25    28    1
     6    25    24    1
     7    25    26    1
     8    25    27    2
     9     6    11    1
    10     6    12    1
    11    29    36    1
    12    29    37    1
    13     7     9    1
    14     7    13    1
    15     8    10    1
    16     8    14    1
    17     4     5    1
    18    28    36    1
    19    30    33    1
    20    30    38    1
    21    31    34    1
    22    31    39    1
    23    32    35    1
    24    32    40    1
    25    41    43   ar
    26    15    19    2
    27    42    43   ar
    28    16    22    2
    29    17    12    1
    30    17    19   ar
    31    17    20   ar
    32    18    19   ar
    33    18    22   ar
    34    18    23    1
    35     9    10    1
    36     9    11    1
    37    10    12    1
    38    11     5    1
    39    33    34    1
    40    33    35    1
    41    34    36    1
    42    35    37    1
    43    37    43    1
    44    20    21   ar
    45    21    22   ar
@<TRIPOS>MOLECULE
UDP-glaA
 43 45 0 0 0
SMALL
GASTEIGER

@<TRIPOS>ATOM
      1 P          22.7716   72.3260   -1.8359 P.3     1  UNL1        0.2189
      2 O          23.8845   73.4720   -2.0921 O.3     1  UNL1       -0.4371
      3 O          23.0851   70.9915   -2.4465 O.2     1  UNL1       -0.5170
      4 O          21.3883   73.0117   -2.3174 O.3     1  UNL1       -0.3112
      5 C          20.7231   72.4739   -3.4477 C.3     1  UNL1        0.1811
      6 O          21.1923   71.4528   -5.5717 O.3     1  UNL1       -0.3308
      7 O          23.0930   73.7255   -6.0337 O.3     1  UNL1       -0.3794
      8 O          20.9092   74.4707   -7.4868 O.3     1  UNL1       -0.3779
      9 C          21.8319   73.7245   -5.3649 C.3     1  UNL1        0.1713
     10 C          20.7041   73.6294   -6.3707 C.3     1  UNL1        0.1895
     11 C          21.7001   72.4067   -4.6128 C.3     1  UNL1        0.1764
     12 C          20.7316   72.1554   -6.7376 C.3     1  UNL1        0.2383
     13 H          23.7838   73.7480   -5.3497 H       1  UNL1        0.2105
     14 H          20.9887   75.3819   -7.1558 H       1  UNL1        0.2106
     15 O          20.2939   69.8939   -8.3713 O.2     1  UNL1       -0.2464
     16 O          15.7164   70.3357   -8.0714 O.2     1  UNL1       -0.2670
     17 N          19.4362   71.6569   -7.1019 N.ar    1  UNL1       -0.2551
     18 N          18.0148   70.1157   -8.2213 N.ar    1  UNL1       -0.2743
     19 C          19.3257   70.5142   -7.9282 C.ar    1  UNL1        0.3323
     20 C          18.2919   72.2989   -6.6418 C.ar    1  UNL1        0.0869
     21 C          17.0490   71.9064   -6.9298 C.ar    1  UNL1        0.0795
     22 C          16.8461   70.7220   -7.7875 C.ar    1  UNL1        0.2626
     23 H          17.9112   69.2967   -8.8143 H       1  UNL1        0.1734
     24 O          22.6291   72.3130   -0.2251 O.3     1  UNL1       -0.2703
     25 P          22.0039   71.2078    0.7750 P.3     1  UNL1        0.2208
     26 O          23.2805   70.2932    1.1621 O.3     1  UNL1       -0.4371
     27 O          20.8448   70.4438    0.2017 O.2     1  UNL1       -0.5170
     28 O          21.6622   72.0242    2.1244 O.3     1  UNL1       -0.2858
     29 O          20.9263   74.2550    2.4097 O.3     1  UNL1       -0.3226
     30 O          23.2177   73.6502    5.8248 O.3     1  UNL1       -0.3794
     31 O          24.1122   72.6345    3.2413 O.3     1  UNL1       -0.3775
     32 O          21.5089   75.6022    4.8763 O.3     1  UNL1       -0.3792
     33 C          22.3391   73.3374    4.7475 C.3     1  UNL1        0.1718
     34 C          23.0414   73.5586    3.4036 C.3     1  UNL1        0.1968
     35 C          21.0995   74.2310    4.8441 C.3     1  UNL1        0.1723
     36 C          22.0550   73.3910    2.2411 C.3     1  UNL1        0.2706
     37 C          20.2122   74.0117    3.6207 C.3     1  UNL1        0.1830
     38 H          22.7317   73.4985    6.6532 H       1  UNL1        0.2105
     39 H          24.5191   72.8061    2.3754 H       1  UNL1        0.2106
     40 H          21.8001   75.8586    3.9849 H       1  UNL1        0.2106
     41 O          17.9684   74.3929    4.1897 O.co2   1  UNL1       -0.5466
     42 O          19.0762   76.0878    3.1423 O.co2   1  UNL1       -0.5466
     43 C          19.0539   74.9578    3.6081 C.2     1  UNL1        0.0799
@<TRIPOS>UNITY_ATOM_ATTR
41 1
charge -1
@<TRIPOS>BOND
     1     1     4    1
     2     1    24    1
     3     1     2    1
     4     1     3    2
     5    25    28    1
     6    25    24    1
     7    25    26    1
     8    25    27    2
     9     6    11    1
    10     6    12    1
    11    29    36    1
    12    29    37    1
    13     7     9    1
    14     7    13    1
    15     8    10    1
    16     8    14    1
    17     4     5    1
    18    28    36    1
    19    30    33    1
    20    30    38    1
    21    31    34    1
    22    31    39    1
    23    32    35    1
    24    32    40    1
    25    41    43   ar
    26    15    19    2
    27    42    43   ar
    28    16    22    2
    29    17    12    1
    30    17    19   ar
    31    17    20   ar
    32    18    19   ar
    33    18    22   ar
    34    18    23    1
    35     9    10    1
    36     9    11    1
    37    10    12    1
    38    11     5    1
    39    33    34    1
    40    33    35    1
    41    34    36    1
    42    35    37    1
    43    37    43    1
    44    20    21   ar
    45    21    22   ar
@<TRIPOS>MOLECULE
UDP-glaA
 43 45 0 0 0
SMALL
GASTEIGER

@<TRIPOS>ATOM
      1 P          21.8824   72.4786   -5.8569 P.3     1  UNL1        0.2189
      2 O          21.2088   73.9164   -5.5464 O.3     1  UNL1       -0.4371
      3 O          23.0493   72.5167   -6.7998 O.2     1  UNL1       -0.5170
      4 O          20.6366   71.5558   -6.3171 O.3     1  UNL1       -0.3112
      5 C          19.9550   71.8862   -7.5152 C.3     1  UNL1        0.1811
      6 O          18.5962   69.9884   -6.9442 O.3     1  UNL1       -0.3308
      7 O          17.9722   69.7906   -9.8704 O.3     1  UNL1       -0.3794
      8 O          15.7447   71.0019   -8.8670 O.3     1  UNL1       -0.3779
      9 C          18.1673   70.9530   -9.0651 C.3     1  UNL1        0.1713
     10 C          16.9634   71.1843   -8.1764 C.3     1  UNL1        0.1895
     11 C          19.2585   70.6426   -8.0490 C.3     1  UNL1        0.1764
     12 C          17.1751   70.1513   -7.0827 C.3     1  UNL1        0.2383
     13 H          18.7821   69.6604  -10.3925 H       1  UNL1        0.2105
     14 H          15.7357   71.6245   -9.6143 H       1  UNL1        0.2106
     15 O          16.7193   68.4255   -4.8943 O.2     1  UNL1       -0.2464
     16 O          15.0672   71.8560   -2.2980 O.2     1  UNL1       -0.2670
     17 N          16.6276   70.5667   -5.8230 N.ar    1  UNL1       -0.2551
     18 N          15.8964   70.1348   -3.6031 N.ar    1  UNL1       -0.2743
     19 C          16.4376   69.6206   -4.7888 C.ar    1  UNL1        0.3323
     20 C          16.2846   71.8991   -5.6218 C.ar    1  UNL1        0.0869
     21 C          15.7701   72.3739   -4.4853 C.ar    1  UNL1        0.0795
     22 C          15.5393   71.4513   -3.3560 C.ar    1  UNL1        0.2626
     23 H          15.7505   69.4725   -2.8460 H       1  UNL1        0.1734
     24 O          22.2271   71.9138   -4.3813 O.3     1  UNL1       -0.2703
     25 P          23.3185   72.3944   -3.2903 P.3     1  UNL1        0.2208
     26 O          24.5351   72.9477   -4.2013 O.3     1  UNL1       -0.4371
     27 O          23.7147   71.3316   -2.3059 O.2     1  UNL1       -0.5170
     28 O          22.6751   73.7150   -2.6225 O.3     1  UNL1       -0.2858
     29 O          20.6500   72.9018   -1.7075 O.3     1  UNL1       -0.3226
     30 O          23.4950   70.7276    0.4039 O.3     1  UNL1       -0.3794
     31 O          23.9116   73.5587   -0.1589 O.3     1  UNL1       -0.3775
     32 O          20.7459   70.7042    0.1365 O.3     1  UNL1       -0.3792
     33 C          22.9003   71.4145   -0.6937 C.3     1  UNL1        0.1718
     34 C          22.6692   72.8876   -0.3403 C.3     1  UNL1        0.1968
     35 C          21.5675   70.7424   -1.0350 C.3     1  UNL1        0.1723
     36 C          21.8757   73.5936   -1.4467 C.3     1  UNL1        0.2706
     37 C          20.8477   71.5485   -2.1140 C.3     1  UNL1        0.1830
     38 H          23.6203   69.8010    0.1369 H       1  UNL1        0.2105
     39 H          23.7155   74.4869    0.0530 H       1  UNL1        0.2106
     40 H          20.4129   71.6011    0.3095 H       1  UNL1        0.2106
     41 O          18.9357   71.5995   -3.4723 O.co2   1  UNL1       -0.5466
     42 O          18.9312   70.1316   -1.7282 O.co2   1  UNL1       -0.5466
     43 C          19.4828   71.0012   -2.3869 C.2     1  UNL1        0.0799
@<TRIPOS>UNITY_ATOM_ATTR
41 1
charge -1
@<TRIPOS>BOND
     1     1     4    1
     2     1    24    1
     3     1     2    1
     4     1     3    2
     5    25    28    1
     6    25    24    1
     7    25    26    1
     8    25    27    2
     9     6    11    1
    10     6    12    1
    11    29    36    1
    12    29    37    1
    13     7     9    1
    14     7    13    1
    15     8    10    1
    16     8    14    1
    17     4     5    1
    18    28    36    1
    19    30    33    1
    20    30    38    1
    21    31    34    1
    22    31    39    1
    23    32    35    1
    24    32    40    1
    25    41    43   ar
    26    15    19    2
    27    42    43   ar
    28    16    22    2
    29    17    12    1
    30    17    19   ar
    31    17    20   ar
    32    18    19   ar
    33    18    22   ar
    34    18    23    1
    35     9    10    1
    36     9    11    1
    37    10    12    1
    38    11     5    1
    39    33    34    1
    40    33    35    1
    41    34    36    1
    42    35    37    1
    43    37    43    1
    44    20    21   ar
    45    21    22   ar
@<TRIPOS>MOLECULE
UDP-glaA
 43 45 0 0 0
SMALL
GASTEIGER

@<TRIPOS>ATOM
      1 P          21.5051   71.8204   -2.6138 P.3     1  UNL1        0.2189
      2 O          22.2616   70.4221   -2.9135 O.3     1  UNL1       -0.4371
      3 O          22.0438   72.5939   -1.4461 O.2     1  UNL1       -0.5170
      4 O          19.9441   71.4074   -2.5234 O.3     1  UNL1       -0.3112
      5 C          19.3841   70.6409   -3.5761 C.3     1  UNL1        0.1811
      6 O          17.6571   71.5642   -4.9686 O.3     1  UNL1       -0.3308
      7 O          15.7165   70.1115   -3.2037 O.3     1  UNL1       -0.3794
      8 O          15.8605   68.4902   -5.3915 O.3     1  UNL1       -0.3779
      9 C          17.0169   69.7125   -3.6367 C.3     1  UNL1        0.1713
     10 C          16.9812   69.2965   -5.0921 C.3     1  UNL1        0.1895
     11 C          17.8983   70.9538   -3.6816 C.3     1  UNL1        0.1764
     12 C          16.9418   70.6384   -5.8032 C.3     1  UNL1        0.2383
     13 H          15.7960   70.4057   -2.2803 H       1  UNL1        0.2105
     14 H          15.9031   67.7054   -4.8183 H       1  UNL1        0.2106
     15 O          15.5411   70.6063   -8.2552 O.2     1  UNL1       -0.2464
     16 O          19.4481   70.4626  -10.6951 O.2     1  UNL1       -0.2670
     17 N          17.5675   70.5933   -7.0939 N.ar    1  UNL1       -0.2551
     18 N          17.4876   70.5342   -9.4685 N.ar    1  UNL1       -0.2743
     19 C          16.7731   70.5797   -8.2641 C.ar    1  UNL1        0.3323
     20 C          18.9543   70.5629   -7.1912 C.ar    1  UNL1        0.0869
     21 C          19.6206   70.5202   -8.3471 C.ar    1  UNL1        0.0795
     22 C          18.8656   70.5024   -9.6157 C.ar    1  UNL1        0.2626
     23 H          16.9370   70.5231  -10.3228 H       1  UNL1        0.1734
     24 O          21.5950   72.5922   -4.0321 O.3     1  UNL1       -0.2703
     25 P          22.8652   72.9518   -4.9648 P.3     1  UNL1        0.2208
     26 O          22.6046   72.0769   -6.3000 O.3     1  UNL1       -0.4371
     27 O          24.1964   72.7077   -4.3136 O.2     1  UNL1       -0.5170
     28 O          22.6170   74.4792   -5.4224 O.3     1  UNL1       -0.2858
     29 O          24.4609   75.7992   -6.0984 O.3     1  UNL1       -0.3226
     30 O          21.5472   78.6757   -5.3804 O.3     1  UNL1       -0.3794
     31 O          21.8513   76.3953   -3.5880 O.3     1  UNL1       -0.3775
     32 O          24.0833   78.6197   -6.4737 O.3     1  UNL1       -0.3792
     33 C          22.1037   77.4247   -5.7750 C.3     1  UNL1        0.1718
     34 C          22.8003   76.7514   -4.5877 C.3     1  UNL1        0.1968
     35 C          23.1087   77.6641   -6.9050 C.3     1  UNL1        0.1723
     36 C          23.5478   75.4909   -5.0400 C.3     1  UNL1        0.2706
     37 C          23.8200   76.3562   -7.2449 C.3     1  UNL1        0.1830
     38 H          21.1199   79.0662   -6.1618 H       1  UNL1        0.2105
     39 H          22.3359   75.9653   -2.8633 H       1  UNL1        0.2106
     40 H          24.6811   78.1870   -5.8408 H       1  UNL1        0.2106
     41 O          25.4802   75.3901   -8.5917 O.co2   1  UNL1       -0.5466
     42 O          25.2263   77.6520   -8.7190 O.co2   1  UNL1       -0.5466
     43 C          24.9028   76.5684   -8.2545 C.2     1  UNL1        0.0799
@<TRIPOS>UNITY_ATOM_ATTR
41 1
charge -1
@<TRIPOS>BOND
     1     1     4    1
     2     1    24    1
     3     1     2    1
     4     1     3    2
     5    25    28    1
     6    25    24    1
     7    25    26    1
     8    25    27    2
     9     6    11    1
    10     6    12    1
    11    29    36    1
    12    29    37    1
    13     7     9    1
    14     7    13    1
    15     8    10    1
    16     8    14    1
    17     4     5    1
    18    28    36    1
    19    30    33    1
    20    30    38    1
    21    31    34    1
    22    31    39    1
    23    32    35    1
    24    32    40    1
    25    41    43   ar
    26    15    19    2
    27    42    43   ar
    28    16    22    2
    29    17    12    1
    30    17    19   ar
    31    17    20   ar
    32    18    19   ar
    33    18    22   ar
    34    18    23    1
    35     9    10    1
    36     9    11    1
    37    10    12    1
    38    11     5    1
    39    33    34    1
    40    33    35    1
    41    34    36    1
    42    35    37    1
    43    37    43    1
    44    20    21   ar
    45    21    22   ar
@<TRIPOS>MOLECULE
UDP-glaA
 43 45 0 0 0
SMALL
GASTEIGER

@<TRIPOS>ATOM
      1 P          21.7563   72.4127   -5.5044 P.3     1  UNL1        0.2189
      2 O          21.0640   73.8429   -5.2001 O.3     1  UNL1       -0.4371
      3 O          23.0324   72.4818   -6.2911 O.2     1  UNL1       -0.5170
      4 O          20.5685   71.5378   -6.1671 O.3     1  UNL1       -0.3112
      5 C          20.0524   71.9390   -7.4249 C.3     1  UNL1        0.1811
      6 O          18.7660   69.9420   -7.0623 O.3     1  UNL1       -0.3308
      7 O          18.0930   70.0697   -9.9816 O.3     1  UNL1       -0.3794
      8 O          15.8475   71.0778   -8.8081 O.3     1  UNL1       -0.3779
      9 C          18.2662   71.1349   -9.0472 C.3     1  UNL1        0.1713
     10 C          17.0727   71.2188   -8.1193 C.3     1  UNL1        0.1895
     11 C          19.3860   70.7440   -8.0917 C.3     1  UNL1        0.1764
     12 C          17.3381   70.0718   -7.1591 C.3     1  UNL1        0.2383
     13 H          18.8966   70.0296  -10.5276 H       1  UNL1        0.2105
     14 H          15.8044   71.7836   -9.4761 H       1  UNL1        0.2106
     15 O          16.4641   68.0522   -5.3890 O.2     1  UNL1       -0.2464
     16 O          15.2951   71.1299   -2.1641 O.2     1  UNL1       -0.2670
     17 N          16.8016   70.3168   -5.8508 N.ar    1  UNL1       -0.2551
     18 N          15.8821   69.5862   -3.7845 N.ar    1  UNL1       -0.2743
     19 C          16.3907   69.2322   -5.0412 C.ar    1  UNL1        0.3323
     20 C          16.6867   71.6207   -5.3818 C.ar    1  UNL1        0.0869
     21 C          16.2001   71.9418   -4.1810 C.ar    1  UNL1        0.0795
     22 C          15.7479   70.8681   -3.2743 C.ar    1  UNL1        0.2626
     23 H          15.5799   68.8226   -3.1856 H       1  UNL1        0.1734
     24 O          21.9076   71.7627   -4.0314 O.3     1  UNL1       -0.2703
     25 P          23.0930   71.8774   -2.9385 P.3     1  UNL1        0.2208
     26 O          23.6442   73.3838   -3.1457 O.3     1  UNL1       -0.4371
     27 O          24.1441   70.8110   -3.0555 O.2     1  UNL1       -0.5170
     28 O          22.3344   71.9124   -1.5147 O.3     1  UNL1       -0.2858
     29 O          23.9714   72.5453    0.0725 O.3     1  UNL1       -0.3226
     30 O          20.5492   72.2645    2.4155 O.3     1  UNL1       -0.3794
     31 O          21.0896   70.2888    0.3393 O.3     1  UNL1       -0.3775
     32 O          23.1414   73.1577    2.7511 O.3     1  UNL1       -0.3792
     33 C          21.3476   72.5217    1.2636 C.3     1  UNL1        0.1718
     34 C          22.0451   71.2385    0.7995 C.3     1  UNL1        0.1968
     35 C          22.3898   73.5881    1.6115 C.3     1  UNL1        0.1723
     36 C          23.0376   71.5381   -0.3308 C.3     1  UNL1        0.2706
     37 C          23.3452   73.7750    0.4348 C.3     1  UNL1        0.1830
     38 H          20.1298   73.1026    2.6748 H       1  UNL1        0.2105
     39 H          21.5769   69.4998    0.0481 H       1  UNL1        0.2106
     40 H          23.7482   72.4512    2.4721 H       1  UNL1        0.2106
     41 O          25.3791   74.0994    1.5582 O.co2   1  UNL1       -0.5466
     42 O          24.5350   75.8758    0.4053 O.co2   1  UNL1       -0.5466
     43 C          24.4580   74.7138    0.7773 C.2     1  UNL1        0.0799
@<TRIPOS>UNITY_ATOM_ATTR
41 1
charge -1
@<TRIPOS>BOND
     1     1     4    1
     2     1    24    1
     3     1     2    1
     4     1     3    2
     5    25    28    1
     6    25    24    1
     7    25    26    1
     8    25    27    2
     9     6    11    1
    10     6    12    1
    11    29    36    1
    12    29    37    1
    13     7     9    1
    14     7    13    1
    15     8    10    1
    16     8    14    1
    17     4     5    1
    18    28    36    1
    19    30    33    1
    20    30    38    1
    21    31    34    1
    22    31    39    1
    23    32    35    1
    24    32    40    1
    25    41    43   ar
    26    15    19    2
    27    42    43   ar
    28    16    22    2
    29    17    12    1
    30    17    19   ar
    31    17    20   ar
    32    18    19   ar
    33    18    22   ar
    34    18    23    1
    35     9    10    1
    36     9    11    1
    37    10    12    1
    38    11     5    1
    39    33    34    1
    40    33    35    1
    41    34    36    1
    42    35    37    1
    43    37    43    1
    44    20    21   ar
    45    21    22   ar
@<TRIPOS>MOLECULE
UDP-glaA
 43 45 0 0 0
SMALL
GASTEIGER

@<TRIPOS>ATOM
      1 P          22.2431   73.2224   -7.2583 P.3     1  UNL1        0.2189
      2 O          21.1688   74.2518   -6.6230 O.3     1  UNL1       -0.4371
      3 O          23.2266   73.8405   -8.2086 O.2     1  UNL1       -0.5170
      4 O          21.3310   72.0330   -7.8658 O.3     1  UNL1       -0.3112
      5 C          19.9416   72.0341   -7.5852 C.3     1  UNL1        0.1811
      6 O          18.7240   70.0394   -7.0259 O.3     1  UNL1       -0.3308
      7 O          18.0748   69.8410   -9.9466 O.3     1  UNL1       -0.3794
      8 O          15.7836   70.8819   -8.8967 O.3     1  UNL1       -0.3779
      9 C          18.2009   71.0024   -9.1262 C.3     1  UNL1        0.1713
     10 C          16.9963   71.1377   -8.2189 C.3     1  UNL1        0.1895
     11 C          19.3247   70.7533   -8.1289 C.3     1  UNL1        0.1764
     12 C          17.2933   70.1062   -7.1438 C.3     1  UNL1        0.2383
     13 H          18.8846   69.7743  -10.4808 H       1  UNL1        0.2105
     14 H          15.7217   71.5131   -9.6342 H       1  UNL1        0.2106
     15 O          16.7424   68.2713   -5.0690 O.2     1  UNL1       -0.2464
     16 O          15.1521   71.5964   -2.3026 O.2     1  UNL1       -0.2670
     17 N          16.7359   70.4649   -5.8711 N.ar    1  UNL1       -0.2551
     18 N          15.9503   69.9282   -3.6930 N.ar    1  UNL1       -0.2743
     19 C          16.4968   69.4667   -4.8978 C.ar    1  UNL1        0.3323
     20 C          16.4317   71.7938   -5.5973 C.ar    1  UNL1        0.0869
     21 C          15.9115   72.2180   -4.4435 C.ar    1  UNL1        0.0795
     22 C          15.6306   71.2390   -3.3746 C.ar    1  UNL1        0.2626
     23 H          15.7695   69.2279   -2.9789 H       1  UNL1        0.1734
     24 O          22.9072   72.5395   -5.9515 O.3     1  UNL1       -0.2703
     25 P          23.3403   73.1725   -4.5288 P.3     1  UNL1        0.2208
     26 O          23.5727   74.7357   -4.8734 O.3     1  UNL1       -0.4371
     27 O          24.5186   72.4973   -3.8873 O.2     1  UNL1       -0.5170
     28 O          21.9925   73.1458   -3.6419 O.3     1  UNL1       -0.2858
     29 O          21.7628   71.1717   -2.3575 O.3     1  UNL1       -0.3226
     30 O          18.0743   73.0065   -1.8019 O.3     1  UNL1       -0.3794
     31 O          19.3487   73.0060   -4.4253 O.3     1  UNL1       -0.3775
     32 O          19.4108   70.8310   -0.7479 O.3     1  UNL1       -0.3792
     33 C          19.4808   72.8949   -2.0011 C.3     1  UNL1        0.1718
     34 C          19.7784   72.1993   -3.3337 C.3     1  UNL1        0.1968
     35 C          20.0825   72.0913   -0.8449 C.3     1  UNL1        0.1723
     36 C          21.2797   71.9206   -3.4777 C.3     1  UNL1        0.2706
     37 C          21.5647   71.8389   -1.1120 C.3     1  UNL1        0.1830
     38 H          17.9332   73.4492   -0.9477 H       1  UNL1        0.2105
     39 H          19.5658   72.5304   -5.2448 H       1  UNL1        0.2106
     40 H          19.7058   70.2664   -1.4824 H       1  UNL1        0.2106
     41 O          21.2008   70.4338    0.7312 O.co2   1  UNL1       -0.5466
     42 O          23.3570   70.7058    0.0428 O.co2   1  UNL1       -0.5466
     43 C          22.1640   70.9468   -0.0718 C.2     1  UNL1        0.0799
@<TRIPOS>UNITY_ATOM_ATTR
41 1
charge -1
@<TRIPOS>BOND
     1     1     4    1
     2     1    24    1
     3     1     2    1
     4     1     3    2
     5    25    28    1
     6    25    24    1
     7    25    26    1
     8    25    27    2
     9     6    11    1
    10     6    12    1
    11    29    36    1
    12    29    37    1
    13     7     9    1
    14     7    13    1
    15     8    10    1
    16     8    14    1
    17     4     5    1
    18    28    36    1
    19    30    33    1
    20    30    38    1
    21    31    34    1
    22    31    39    1
    23    32    35    1
    24    32    40    1
    25    41    43   ar
    26    15    19    2
    27    42    43   ar
    28    16    22    2
    29    17    12    1
    30    17    19   ar
    31    17    20   ar
    32    18    19   ar
    33    18    22   ar
    34    18    23    1
    35     9    10    1
    36     9    11    1
    37    10    12    1
    38    11     5    1
    39    33    34    1
    40    33    35    1
    41    34    36    1
    42    35    37    1
    43    37    43    1
    44    20    21   ar
    45    21    22   ar
@<TRIPOS>MOLECULE
UDP-glaA
 43 45 0 0 0
SMALL
GASTEIGER

@<TRIPOS>ATOM
      1 P          21.9554   72.4022   -5.8453 P.3     1  UNL1        0.2189
      2 O          21.3354   73.8282   -5.3986 O.3     1  UNL1       -0.4371
      3 O          23.1345   72.4864   -6.7698 O.2     1  UNL1       -0.5170
      4 O          20.6799   71.5810   -6.4058 O.3     1  UNL1       -0.3112
      5 C          20.1253   71.9603   -7.6539 C.3     1  UNL1        0.1811
      6 O          18.8879   69.9440   -7.2326 O.3     1  UNL1       -0.3308
      7 O          18.1112   70.0378  -10.1273 O.3     1  UNL1       -0.3794
      8 O          15.8905   71.0154   -8.8829 O.3     1  UNL1       -0.3779
      9 C          18.2980   71.1129   -9.2070 C.3     1  UNL1        0.1713
     10 C          17.1364   71.1830   -8.2384 C.3     1  UNL1        0.1895
     11 C          19.4572   70.7489   -8.2886 C.3     1  UNL1        0.1764
     12 C          17.4554   70.0481   -7.2801 C.3     1  UNL1        0.2383
     13 H          18.8958   70.0076  -10.7009 H       1  UNL1        0.2105
     14 H          15.8116   71.7153   -9.5538 H       1  UNL1        0.2106
     15 O          16.3553   68.0667   -5.5951 O.2     1  UNL1       -0.2464
     16 O          15.5866   71.1064   -2.2175 O.2     1  UNL1       -0.2670
     17 N          16.9607   70.2936   -5.9556 N.ar    1  UNL1       -0.2551
     18 N          15.9728   69.5818   -3.9145 N.ar    1  UNL1       -0.2743
     19 C          16.4270   69.2291   -5.1921 C.ar    1  UNL1        0.3323
     20 C          17.0069   71.5782   -5.4255 C.ar    1  UNL1        0.0869
     21 C          16.5702   71.8983   -4.2054 C.ar    1  UNL1        0.0795
     22 C          15.9975   70.8449   -3.3439 C.ar    1  UNL1        0.2626
     23 H          15.5845   68.8326   -3.3479 H       1  UNL1        0.1734
     24 O          22.2591   71.6800   -4.4306 O.3     1  UNL1       -0.2703
     25 P          23.4320   71.9244   -3.3456 P.3     1  UNL1        0.2208
     26 O          24.1999   73.2283   -3.9167 O.3     1  UNL1       -0.4371
     27 O          24.3181   70.7333   -3.1176 O.2     1  UNL1       -0.5170
     28 O          22.6654   72.4474   -2.0255 O.3     1  UNL1       -0.2858
     29 O          22.7325   70.9143   -0.2242 O.3     1  UNL1       -0.3226
     30 O          20.0499   73.7708    1.1627 O.3     1  UNL1       -0.3794
     31 O          19.9710   72.8900   -1.6165 O.3     1  UNL1       -0.3775
     32 O          21.3513   71.5687    2.2054 O.3     1  UNL1       -0.3792
     33 C          21.1729   73.2367    0.4672 C.3     1  UNL1        0.1718
     34 C          20.7150   72.2327   -0.5961 C.3     1  UNL1        0.1968
     35 C          22.0975   72.5476    1.4747 C.3     1  UNL1        0.1723
     36 C          21.9195   71.5264   -1.2308 C.3     1  UNL1        0.2706
     37 C          23.2333   71.8466    0.7328 C.3     1  UNL1        0.1830
     38 H          20.3863   74.3977    1.8256 H       1  UNL1        0.2105
     39 H          19.7116   72.2183   -2.2694 H       1  UNL1        0.2106
     40 H          21.1846   70.8089    1.6223 H       1  UNL1        0.2106
     41 O          23.6455   71.1728    2.9418 O.co2   1  UNL1       -0.5466
     42 O          25.0546   70.3800    1.3346 O.co2   1  UNL1       -0.5466
     43 C          24.0888   71.0517    1.6673 C.2     1  UNL1        0.0799
@<TRIPOS>UNITY_ATOM_ATTR
41 1
charge -1
@<TRIPOS>BOND
     1     1     4    1
     2     1    24    1
     3     1     2    1
     4     1     3    2
     5    25    28    1
     6    25    24    1
     7    25    26    1
     8    25    27    2
     9     6    11    1
    10     6    12    1
    11    29    36    1
    12    29    37    1
    13     7     9    1
    14     7    13    1
    15     8    10    1
    16     8    14    1
    17     4     5    1
    18    28    36    1
    19    30    33    1
    20    30    38    1
    21    31    34    1
    22    31    39    1
    23    32    35    1
    24    32    40    1
    25    41    43   ar
    26    15    19    2
    27    42    43   ar
    28    16    22    2
    29    17    12    1
    30    17    19   ar
    31    17    20   ar
    32    18    19   ar
    33    18    22   ar
    34    18    23    1
    35     9    10    1
    36     9    11    1
    37    10    12    1
    38    11     5    1
    39    33    34    1
    40    33    35    1
    41    34    36    1
    42    35    37    1
    43    37    43    1
    44    20    21   ar
    45    21    22   ar
@<TRIPOS>MOLECULE
UDP-glaA
 43 45 0 0 0
SMALL
GASTEIGER

@<TRIPOS>ATOM
      1 P          20.5731   72.1132   -1.4626 P.3     1  UNL1        0.2189
      2 O          19.3584   72.7631   -0.6143 O.3     1  UNL1       -0.4371
      3 O          21.4772   73.1047   -2.1347 O.2     1  UNL1       -0.5170
      4 O          19.8419   71.0530   -2.4408 O.3     1  UNL1       -0.3112
      5 C          19.4477   71.4833   -3.7325 C.3     1  UNL1        0.1811
      6 O          17.5524   71.8180   -5.1714 O.3     1  UNL1       -0.3308
      7 O          16.0165   70.1247   -3.2310 O.3     1  UNL1       -0.3794
      8 O          16.5553   68.3748   -5.2518 O.3     1  UNL1       -0.3779
      9 C          17.3760   70.0100   -3.6507 C.3     1  UNL1        0.1713
     10 C          17.4464   69.4536   -5.0571 C.3     1  UNL1        0.1895
     11 C          17.9306   71.4163   -3.8362 C.3     1  UNL1        0.1764
     12 C          17.0852   70.6679   -5.8955 C.3     1  UNL1        0.2383
     13 H          16.0197   70.5206   -2.3429 H       1  UNL1        0.2105
     14 H          16.7851   67.6852   -4.6054 H       1  UNL1        0.2106
     15 O          15.6939   70.3252   -8.3291 O.2     1  UNL1       -0.2464
     16 O          19.5757   70.5977  -10.7981 O.2     1  UNL1       -0.2670
     17 N          17.7069   70.6458   -7.1887 N.ar    1  UNL1       -0.2551
     18 N          17.6279   70.4606   -9.5569 N.ar    1  UNL1       -0.2743
     19 C          16.9179   70.4667   -8.3490 C.ar    1  UNL1        0.3323
     20 C          19.0844   70.8005   -7.2983 C.ar    1  UNL1        0.0869
     21 C          19.7464   70.7928   -8.4574 C.ar    1  UNL1        0.0795
     22 C          18.9968   70.6101   -9.7161 C.ar    1  UNL1        0.2626
     23 H          17.0811   70.3326  -10.4041 H       1  UNL1        0.1734
     24 O          21.3043   71.1623   -0.3780 O.3     1  UNL1       -0.2703
     25 P          21.9116   71.4925    1.0830 P.3     1  UNL1        0.2208
     26 O          22.9844   70.3046    1.3161 O.3     1  UNL1       -0.4371
     27 O          20.8784   71.6161    2.1660 O.2     1  UNL1       -0.5170
     28 O          22.8088   72.8157    0.8634 O.3     1  UNL1       -0.2858
     29 O          24.5934   74.2736    1.4012 O.3     1  UNL1       -0.3226
     30 O          21.7978   75.1996    4.3349 O.3     1  UNL1       -0.3794
     31 O          22.2485   72.4302    3.5392 O.3     1  UNL1       -0.3775
     32 O          24.2142   76.2235    3.4730 O.3     1  UNL1       -0.3792
     33 C          22.2983   74.8120    3.0584 C.3     1  UNL1        0.1718
     34 C          23.0995   73.5106    3.1712 C.3     1  UNL1        0.1968
     35 C          23.1910   75.9314    2.5157 C.3     1  UNL1        0.1723
     36 C          23.7844   73.1772    1.8399 C.3     1  UNL1        0.2706
     37 C          23.8502   75.4771    1.2151 C.3     1  UNL1        0.1830
     38 H          21.3009   76.0270    4.2163 H       1  UNL1        0.2105
     39 H          22.7964   71.6289    3.5888 H       1  UNL1        0.2106
     40 H          24.8658   75.5021    3.4586 H       1  UNL1        0.2106
     41 O          26.0714   76.2318    1.1985 O.co2   1  UNL1       -0.5466
     42 O          24.5614   77.4220   -0.0264 O.co2   1  UNL1       -0.5466
     43 C          24.8317   76.4895    0.7165 C.2     1  UNL1        0.0799
@<TRIPOS>UNITY_ATOM_ATTR
41 1
charge -1
@<TRIPOS>BOND
     1     1     4    1
     2     1    24    1
     3     1     2    1
     4     1     3    2
     5    25    28    1
     6    25    24    1
     7    25    26    1
     8    25    27    2
     9     6    11    1
    10     6    12    1
    11    29    36    1
    12    29    37    1
    13     7     9    1
    14     7    13    1
    15     8    10    1
    16     8    14    1
    17     4     5    1
    18    28    36    1
    19    30    33    1
    20    30    38    1
    21    31    34    1
    22    31    39    1
    23    32    35    1
    24    32    40    1
    25    41    43   ar
    26    15    19    2
    27    42    43   ar
    28    16    22    2
    29    17    12    1
    30    17    19   ar
    31    17    20   ar
    32    18    19   ar
    33    18    22   ar
    34    18    23    1
    35     9    10    1
    36     9    11    1
    37    10    12    1
    38    11     5    1
    39    33    34    1
    40    33    35    1
    41    34    36    1
    42    35    37    1
    43    37    43    1
    44    20    21   ar
    45    21    22   ar
@<TRIPOS>MOLECULE
UDP-glaA
 43 45 0 0 0
SMALL
GASTEIGER

@<TRIPOS>ATOM
      1 P          15.9852   70.0204   -2.9573 P.3     1  UNL1        0.2189
      2 O          15.0463   71.3361   -3.0245 O.3     1  UNL1       -0.4371
      3 O          16.1021   69.2596   -4.2456 O.2     1  UNL1       -0.5170
      4 O          15.4003   69.1880   -1.7001 O.3     1  UNL1       -0.3112
      5 C          14.6496   69.8822   -0.7183 C.3     1  UNL1        0.1811
      6 O          12.6676   68.5254   -0.6491 O.3     1  UNL1       -0.3308
      7 O          11.1410   71.0606   -1.1322 O.3     1  UNL1       -0.3794
      8 O          10.8361   70.6842    1.5512 O.3     1  UNL1       -0.3779
      9 C          12.3254   70.8521   -0.3631 C.3     1  UNL1        0.1713
     10 C          11.9909   70.1510    0.9365 C.3     1  UNL1        0.1895
     11 C          13.1728   69.8087   -1.0792 C.3     1  UNL1        0.1764
     12 C          11.7991   68.7147    0.4802 C.3     1  UNL1        0.2383
     13 H          11.4088   71.4756   -1.9699 H       1  UNL1        0.2105
     14 H          10.9999   71.6295    1.7116 H       1  UNL1        0.2106
     15 O          14.4416   68.1283    1.2859 O.2     1  UNL1       -0.2464
     16 O          13.0037   65.0502    4.3998 O.2     1  UNL1       -0.2670
     17 N          12.1442   67.7650    1.4992 N.ar    1  UNL1       -0.2551
     18 N          13.7238   66.5955    2.8356 N.ar    1  UNL1       -0.2743
     19 C          13.5020   67.5437    1.8282 C.ar    1  UNL1        0.3323
     20 C          11.1424   67.0639    2.1612 C.ar    1  UNL1        0.0869
     21 C          11.3701   66.1634    3.1199 C.ar    1  UNL1        0.0795
     22 C          12.7605   65.8729    3.5223 C.ar    1  UNL1        0.2626
     23 H          14.6926   66.4197    3.0882 H       1  UNL1        0.1734
     24 O          17.3833   70.6016   -2.3891 O.3     1  UNL1       -0.2703
     25 P          18.9127   70.1981   -2.7219 P.3     1  UNL1        0.2208
     26 O          18.7916   68.6644   -3.2212 O.3     1  UNL1       -0.4371
     27 O          19.8666   70.4049   -1.5804 O.2     1  UNL1       -0.5170
     28 O          19.2755   71.0338   -4.0538 O.3     1  UNL1       -0.2858
     29 O          21.0688   72.4547   -3.4500 O.3     1  UNL1       -0.3226
     30 O          20.6126   73.2986   -7.4946 O.3     1  UNL1       -0.3794
     31 O          18.2783   72.9409   -5.7832 O.3     1  UNL1       -0.3775
     32 O          22.4276   73.9230   -5.5082 O.3     1  UNL1       -0.3792
     33 C          20.6182   72.5295   -6.2951 C.3     1  UNL1        0.1718
     34 C          19.6060   73.0949   -5.2930 C.3     1  UNL1        0.1968
     35 C          22.0255   72.5617   -5.6928 C.3     1  UNL1        0.1723
     36 C          19.7257   72.3830   -3.9398 C.3     1  UNL1        0.2706
     37 C          22.0187   71.8629   -4.3350 C.3     1  UNL1        0.1830
     38 H          21.2679   72.9073   -8.0971 H       1  UNL1        0.2105
     39 H          17.6743   73.3032   -5.1132 H       1  UNL1        0.2106
     40 H          21.9403   74.2890   -4.7509 H       1  UNL1        0.2106
     41 O          23.3170   71.3660   -2.4451 O.co2   1  UNL1       -0.5466
     42 O          24.3210   72.5550   -4.1111 O.co2   1  UNL1       -0.5466
     43 C          23.3434   71.9832   -3.6510 C.2     1  UNL1        0.0799
@<TRIPOS>UNITY_ATOM_ATTR
41 1
charge -1
@<TRIPOS>BOND
     1     1     4    1
     2     1    24    1
     3     1     2    1
     4     1     3    2
     5    25    28    1
     6    25    24    1
     7    25    26    1
     8    25    27    2
     9     6    11    1
    10     6    12    1
    11    29    36    1
    12    29    37    1
    13     7     9    1
    14     7    13    1
    15     8    10    1
    16     8    14    1
    17     4     5    1
    18    28    36    1
    19    30    33    1
    20    30    38    1
    21    31    34    1
    22    31    39    1
    23    32    35    1
    24    32    40    1
    25    41    43   ar
    26    15    19    2
    27    42    43   ar
    28    16    22    2
    29    17    12    1
    30    17    19   ar
    31    17    20   ar
    32    18    19   ar
    33    18    22   ar
    34    18    23    1
    35     9    10    1
    36     9    11    1
    37    10    12    1
    38    11     5    1
    39    33    34    1
    40    33    35    1
    41    34    36    1
    42    35    37    1
    43    37    43    1
    44    20    21   ar
    45    21    22   ar
@<TRIPOS>MOLECULE
UDP-glaA
 43 45 0 0 0
SMALL
GASTEIGER

@<TRIPOS>ATOM
      1 P          15.7606   70.3647   -2.3825 P.3     1  UNL1        0.2189
      2 O          14.8249   71.5441   -2.9746 O.3     1  UNL1       -0.4371
      3 O          15.7682   69.0983   -3.1877 O.2     1  UNL1       -0.5170
      4 O          15.2772   70.2179   -0.8462 O.3     1  UNL1       -0.3112
      5 C          14.6239   69.0231   -0.4528 C.3     1  UNL1        0.1811
      6 O          12.4717   67.9855   -0.1957 O.3     1  UNL1       -0.3308
      7 O          11.3135   70.7247   -0.5787 O.3     1  UNL1       -0.3794
      8 O          11.1893   70.3985    2.1257 O.3     1  UNL1       -0.3779
      9 C          12.5145   70.3371    0.0884 C.3     1  UNL1        0.1713
     10 C          12.1913   69.6950    1.4210 C.3     1  UNL1        0.1895
     11 C          13.1274   69.1766   -0.6843 C.3     1  UNL1        0.1764
     12 C          11.7439   68.3051    1.0015 C.3     1  UNL1        0.2383
     13 H          11.5675   71.0940   -1.4416 H       1  UNL1        0.2105
     14 H          11.5087   71.3075    2.2591 H       1  UNL1        0.2106
     15 O          14.3267   67.3258    1.5890 O.2     1  UNL1       -0.2464
     16 O          12.7118   64.4979    4.8500 O.2     1  UNL1       -0.2670
     17 N          12.0274   67.3135    1.9993 N.ar    1  UNL1       -0.2551
     18 N          13.5208   65.9179    3.2121 N.ar    1  UNL1       -0.2743
     19 C          13.3594   66.8894    2.2155 C.ar    1  UNL1        0.3323
     20 C          10.9914   66.7713    2.7517 C.ar    1  UNL1        0.0869
     21 C          11.1616   65.8461    3.6987 C.ar    1  UNL1        0.0795
     22 C          12.5216   65.3486    3.9862 C.ar    1  UNL1        0.2626
     23 H          14.4699   65.5976    3.3844 H       1  UNL1        0.1734
     24 O          17.2030   71.0824   -2.2424 O.3     1  UNL1       -0.2703
     25 P          18.3128   71.4583   -3.3557 P.3     1  UNL1        0.2208
     26 O          19.3845   70.2531   -3.2331 O.3     1  UNL1       -0.4371
     27 O          18.9025   72.8307   -3.1987 O.2     1  UNL1       -0.5170
     28 O          17.5757   71.2072   -4.7690 O.3     1  UNL1       -0.2858
     29 O          18.9259   72.0891   -6.5007 O.3     1  UNL1       -0.3226
     30 O          15.6130   70.7075   -8.5972 O.3     1  UNL1       -0.3794
     31 O          15.2848   72.0752   -6.0423 O.3     1  UNL1       -0.3775
     32 O          18.1107   71.7058   -9.2259 O.3     1  UNL1       -0.3792
     33 C          16.6158   70.7514   -7.5859 C.3     1  UNL1        0.1718
     34 C          16.5034   72.0487   -6.7779 C.3     1  UNL1        0.1968
     35 C          17.9929   70.6655   -8.2498 C.3     1  UNL1        0.1723
     36 C          17.6796   72.1850   -5.8030 C.3     1  UNL1        0.2706
     37 C          19.0829   70.8538   -7.1970 C.3     1  UNL1        0.1830
     38 H          15.7235   69.8728   -9.0838 H       1  UNL1        0.2105
     39 H          15.2628   72.9076   -5.5409 H       1  UNL1        0.2106
     40 H          18.2286   72.5522   -8.7625 H       1  UNL1        0.2106
     41 O          21.0068   69.6753   -7.8400 O.co2   1  UNL1       -0.5466
     42 O          20.9750   71.9166   -8.2554 O.co2   1  UNL1       -0.5466
     43 C          20.4418   70.9066   -7.8196 C.2     1  UNL1        0.0799
@<TRIPOS>UNITY_ATOM_ATTR
41 1
charge -1
@<TRIPOS>BOND
     1     1     4    1
     2     1    24    1
     3     1     2    1
     4     1     3    2
     5    25    28    1
     6    25    24    1
     7    25    26    1
     8    25    27    2
     9     6    11    1
    10     6    12    1
    11    29    36    1
    12    29    37    1
    13     7     9    1
    14     7    13    1
    15     8    10    1
    16     8    14    1
    17     4     5    1
    18    28    36    1
    19    30    33    1
    20    30    38    1
    21    31    34    1
    22    31    39    1
    23    32    35    1
    24    32    40    1
    25    41    43   ar
    26    15    19    2
    27    42    43   ar
    28    16    22    2
    29    17    12    1
    30    17    19   ar
    31    17    20   ar
    32    18    19   ar
    33    18    22   ar
    34    18    23    1
    35     9    10    1
    36     9    11    1
    37    10    12    1
    38    11     5    1
    39    33    34    1
    40    33    35    1
    41    34    36    1
    42    35    37    1
    43    37    43    1
    44    20    21   ar
    45    21    22   ar
@<TRIPOS>MOLECULE
UDP-glaA
 43 45 0 0 0
SMALL
GASTEIGER

@<TRIPOS>ATOM
      1 P          22.9963   73.2228   -4.0156 P.3     1  UNL1        0.2189
      2 O          22.7816   74.5636   -4.8951 O.3     1  UNL1       -0.4371
      3 O          24.3654   72.6157   -4.1110 O.2     1  UNL1       -0.5170
      4 O          21.7705   72.2654   -4.4589 O.3     1  UNL1       -0.3112
      5 C          21.3523   72.2837   -5.8132 C.3     1  UNL1        0.1811
      6 O          19.9469   70.3789   -5.3999 O.3     1  UNL1       -0.3308
      7 O          20.7093   69.4549   -8.1488 O.3     1  UNL1       -0.3794
      8 O          18.2288   70.5164   -8.5439 O.3     1  UNL1       -0.3779
      9 C          20.4828   70.7813   -7.6722 C.3     1  UNL1        0.1713
     10 C          19.0011   71.0226   -7.4749 C.3     1  UNL1        0.1895
     11 C          21.0119   70.8649   -6.2465 C.3     1  UNL1        0.1764
     12 C          18.7344   70.2971   -6.1670 C.3     1  UNL1        0.2383
     13 H          21.6713   69.3338   -8.2225 H       1  UNL1        0.2105
     14 H          18.5350   70.9518   -9.3581 H       1  UNL1        0.2106
     15 O          16.8740   68.8491   -4.6123 O.2     1  UNL1       -0.2464
     16 O          14.6750   72.6920   -3.3336 O.2     1  UNL1       -0.2670
     17 N          17.6661   70.8936   -5.4172 N.ar    1  UNL1       -0.2551
     18 N          15.7799   70.7636   -3.9770 N.ar    1  UNL1       -0.2743
     19 C          16.7858   70.0769   -4.6696 C.ar    1  UNL1        0.3323
     20 C          17.4985   72.2739   -5.4275 C.ar    1  UNL1        0.0869
     21 C          16.5346   72.9136   -4.7615 C.ar    1  UNL1        0.0795
     22 C          15.5729   72.1342   -3.9571 C.ar    1  UNL1        0.2626
     23 H          15.1350   70.1966   -3.4332 H       1  UNL1        0.1734
     24 O          22.5702   73.6930   -2.5282 O.3     1  UNL1       -0.2703
     25 P          22.7682   75.1039   -1.7647 P.3     1  UNL1        0.2208
     26 O          21.4822   75.9643   -2.2358 O.3     1  UNL1       -0.4371
     27 O          24.0892   75.7676   -2.0298 O.2     1  UNL1       -0.5170
     28 O          22.4895   74.7705   -0.2106 O.3     1  UNL1       -0.2858
     29 O          21.5534   72.6514    0.2713 O.3     1  UNL1       -0.3226
     30 O          21.0656   74.6597    3.8780 O.3     1  UNL1       -0.3794
     31 O          20.5844   76.0240    1.3456 O.3     1  UNL1       -0.3775
     32 O          20.7454   72.0728    2.9640 O.3     1  UNL1       -0.3792
     33 C          21.6709   74.2811    2.6449 C.3     1  UNL1        0.1718
     34 C          20.7450   74.6149    1.4703 C.3     1  UNL1        0.1968
     35 C          21.9574   72.7772    2.6750 C.3     1  UNL1        0.1723
     36 C          21.3098   74.0574    0.1579 C.3     1  UNL1        0.2706
     37 C          22.4748   72.3259    1.3109 C.3     1  UNL1        0.1830
     38 H          21.6841   74.4282    4.5917 H       1  UNL1        0.2105
     39 H          20.0002   76.1865    0.5859 H       1  UNL1        0.2106
     40 H          20.1797   72.0941    2.1736 H       1  UNL1        0.2106
     41 O          21.4622   70.2328    0.9989 O.co2   1  UNL1       -0.5466
     42 O          23.7040   70.2502    1.4124 O.co2   1  UNL1       -0.5466
     43 C          22.6455   70.8411    1.2543 C.2     1  UNL1        0.0799
@<TRIPOS>UNITY_ATOM_ATTR
41 1
charge -1
@<TRIPOS>BOND
     1     1     4    1
     2     1    24    1
     3     1     2    1
     4     1     3    2
     5    25    28    1
     6    25    24    1
     7    25    26    1
     8    25    27    2
     9     6    11    1
    10     6    12    1
    11    29    36    1
    12    29    37    1
    13     7     9    1
    14     7    13    1
    15     8    10    1
    16     8    14    1
    17     4     5    1
    18    28    36    1
    19    30    33    1
    20    30    38    1
    21    31    34    1
    22    31    39    1
    23    32    35    1
    24    32    40    1
    25    41    43   ar
    26    15    19    2
    27    42    43   ar
    28    16    22    2
    29    17    12    1
    30    17    19   ar
    31    17    20   ar
    32    18    19   ar
    33    18    22   ar
    34    18    23    1
    35     9    10    1
    36     9    11    1
    37    10    12    1
    38    11     5    1
    39    33    34    1
    40    33    35    1
    41    34    36    1
    42    35    37    1
    43    37    43    1
    44    20    21   ar
    45    21    22   ar
@<TRIPOS>MOLECULE
UDP-glaA
 43 45 0 0 0
SMALL
GASTEIGER

@<TRIPOS>ATOM
      1 P          23.5850   72.3964   -3.3661 P.3     1  UNL1        0.2189
      2 O          24.1479   70.8952   -3.1497 O.3     1  UNL1       -0.4371
      3 O          24.6274   73.4199   -3.7100 O.2     1  UNL1       -0.5170
      4 O          22.7284   72.6885   -2.0258 O.3     1  UNL1       -0.3112
      5 C          23.4187   72.8099   -0.7937 C.3     1  UNL1        0.1811
      6 O          24.4974   71.2886    0.7216 O.3     1  UNL1       -0.3308
      7 O          21.7582   70.2121    1.2954 O.3     1  UNL1       -0.3794
      8 O          22.2253   71.8268    3.4425 O.3     1  UNL1       -0.3779
      9 C          22.1633   71.5544    1.0274 C.3     1  UNL1        0.1713
     10 C          22.8776   72.1371    2.2286 C.3     1  UNL1        0.1895
     11 C          23.2739   71.5109   -0.0138 C.3     1  UNL1        0.1764
     12 C          24.2500   71.4942    2.1223 C.3     1  UNL1        0.2383
     13 H          21.3414   69.8683    0.4869 H       1  UNL1        0.2105
     14 H          21.3200   72.1784    3.3865 H       1  UNL1        0.2106
     15 O          26.9485   70.7054    2.3892 O.2     1  UNL1       -0.2464
     16 O          28.1454   74.7648    4.2132 O.2     1  UNL1       -0.2670
     17 N          25.2879   72.3248    2.6629 N.ar    1  UNL1       -0.2551
     18 N          27.5426   72.7271    3.2978 N.ar    1  UNL1       -0.2743
     19 C          26.6109   71.8330    2.7542 C.ar    1  UNL1        0.3323
     20 C          24.9903   73.6121    3.0963 C.ar    1  UNL1        0.0869
     21 C          25.8899   74.4527    3.6118 C.ar    1  UNL1        0.0795
     22 C          27.2942   74.0163    3.7428 C.ar    1  UNL1        0.2626
     23 H          28.5001   72.3947    3.3736 H       1  UNL1        0.1734
     24 O          22.4412   72.1957   -4.4915 O.3     1  UNL1       -0.2703
     25 P          22.0147   73.1206   -5.7466 P.3     1  UNL1        0.2208
     26 O          22.9830   72.6035   -6.9345 O.3     1  UNL1       -0.4371
     27 O          22.0949   74.5964   -5.4796 O.2     1  UNL1       -0.5170
     28 O          20.5455   72.5968   -6.1601 O.3     1  UNL1       -0.2858
     29 O          19.4576   70.5831   -5.5592 O.3     1  UNL1       -0.3226
     30 O          17.8757   71.3364   -9.3287 O.3     1  UNL1       -0.3794
     31 O          20.7075   71.7843   -8.7938 O.3     1  UNL1       -0.3775
     32 O          17.3934   69.5586   -7.2703 O.3     1  UNL1       -0.3792
     33 C          18.4048   71.6146   -8.0353 C.3     1  UNL1        0.1718
     34 C          19.8357   71.0790   -7.9167 C.3     1  UNL1        0.1968
     35 C          17.5098   70.9558   -6.9819 C.3     1  UNL1        0.1723
     36 C          20.3509   71.2196   -6.4789 C.3     1  UNL1        0.2706
     37 C          18.1370   71.1216   -5.5994 C.3     1  UNL1        0.1830
     38 H          16.9703   71.6900   -9.3576 H       1  UNL1        0.2105
     39 H          21.6003   71.4181   -8.6770 H       1  UNL1        0.2106
     40 H          18.2313   69.1242   -7.0371 H       1  UNL1        0.2106
     41 O          17.0031   71.2131   -3.5477 O.co2   1  UNL1       -0.5466
     42 O          17.0862   69.1918   -4.5987 O.co2   1  UNL1       -0.5466
     43 C          17.3630   70.3817   -4.5551 C.2     1  UNL1        0.0799
@<TRIPOS>UNITY_ATOM_ATTR
41 1
charge -1
@<TRIPOS>BOND
     1     1     4    1
     2     1    24    1
     3     1     2    1
     4     1     3    2
     5    25    28    1
     6    25    24    1
     7    25    26    1
     8    25    27    2
     9     6    11    1
    10     6    12    1
    11    29    36    1
    12    29    37    1
    13     7     9    1
    14     7    13    1
    15     8    10    1
    16     8    14    1
    17     4     5    1
    18    28    36    1
    19    30    33    1
    20    30    38    1
    21    31    34    1
    22    31    39    1
    23    32    35    1
    24    32    40    1
    25    41    43   ar
    26    15    19    2
    27    42    43   ar
    28    16    22    2
    29    17    12    1
    30    17    19   ar
    31    17    20   ar
    32    18    19   ar
    33    18    22   ar
    34    18    23    1
    35     9    10    1
    36     9    11    1
    37    10    12    1
    38    11     5    1
    39    33    34    1
    40    33    35    1
    41    34    36    1
    42    35    37    1
    43    37    43    1
    44    20    21   ar
    45    21    22   ar
@<TRIPOS>MOLECULE
UDP-glaA
 43 45 0 0 0
SMALL
GASTEIGER

@<TRIPOS>ATOM
      1 P          21.0022   74.2785   -3.1395 P.3     1  UNL1        0.2189
      2 O          20.4883   74.4641   -1.6168 O.3     1  UNL1       -0.4371
      3 O          21.2202   75.5572   -3.8942 O.2     1  UNL1       -0.5170
      4 O          19.9342   73.2523   -3.7890 O.3     1  UNL1       -0.3112
      5 C          18.8044   73.7848   -4.4592 C.3     1  UNL1        0.1811
      6 O          17.0596   72.4820   -5.4754 O.3     1  UNL1       -0.3308
      7 O          16.7887   71.1167   -2.8195 O.3     1  UNL1       -0.3794
      8 O          18.2330   69.3155   -4.2704 O.3     1  UNL1       -0.3779
      9 C          17.9638   71.5963   -3.4728 C.3     1  UNL1        0.1713
     10 C          18.3384   70.6804   -4.6189 C.3     1  UNL1        0.1895
     11 C          17.6041   72.8855   -4.1996 C.3     1  UNL1        0.1764
     12 C          17.3399   71.0887   -5.6887 C.3     1  UNL1        0.2383
     13 H          16.5653   71.7542   -2.1200 H       1  UNL1        0.2105
     14 H          18.8207   69.1612   -3.5107 H       1  UNL1        0.2106
     15 O          15.7591   70.4837   -7.9493 O.2     1  UNL1       -0.2464
     16 O          19.4317   70.4383  -10.7329 O.2     1  UNL1       -0.2670
     17 N          17.8566   70.9139   -7.0160 N.ar    1  UNL1       -0.2551
     18 N          17.5890   70.4609   -9.3338 N.ar    1  UNL1       -0.2743
     19 C          16.9776   70.6110   -8.0821 C.ar    1  UNL1        0.3323
     20 C          19.2209   71.0426   -7.2513 C.ar    1  UNL1        0.0869
     21 C          19.7885   70.8970   -8.4507 C.ar    1  UNL1        0.0795
     22 C          18.9409   70.5790   -9.6169 C.ar    1  UNL1        0.2626
     23 H          16.9765   70.2423  -10.1149 H       1  UNL1        0.1734
     24 O          22.3251   73.3646   -2.9666 O.3     1  UNL1       -0.2703
     25 P          22.8213   72.4392   -1.7378 P.3     1  UNL1        0.2208
     26 O          24.1076   71.6712   -2.3474 O.3     1  UNL1       -0.4371
     27 O          21.7615   71.5304   -1.1840 O.2     1  UNL1       -0.5170
     28 O          23.4357   73.4775   -0.6661 O.3     1  UNL1       -0.2858
     29 O          23.1642   73.7949    1.6630 O.3     1  UNL1       -0.3226
     30 O          21.5925   69.9860    1.1140 O.3     1  UNL1       -0.3794
     31 O          24.0158   70.8050   -0.2870 O.3     1  UNL1       -0.3775
     32 O          21.7236   71.8236    3.1721 O.3     1  UNL1       -0.3792
     33 C          21.9160   71.3407    0.8132 C.3     1  UNL1        0.1718
     34 C          23.4359   71.5346    0.7893 C.3     1  UNL1        0.1968
     35 C          21.2889   72.2473    1.8758 C.3     1  UNL1        0.1723
     36 C          23.7919   73.0186    0.6372 C.3     1  UNL1        0.2706
     37 C          21.7414   73.6887    1.6526 C.3     1  UNL1        0.1830
     38 H          20.6231   69.9105    1.1210 H       1  UNL1        0.2105
     39 H          24.9743   70.9655   -0.2674 H       1  UNL1        0.2106
     40 H          22.6517   72.0886    3.2886 H       1  UNL1        0.2106
     41 O          22.2014   74.7256    3.7061 O.co2   1  UNL1       -0.5466
     42 O          20.1632   75.1343    2.7703 O.co2   1  UNL1       -0.5466
     43 C          21.2572   74.5895    2.7440 C.2     1  UNL1        0.0799
@<TRIPOS>UNITY_ATOM_ATTR
41 1
charge -1
@<TRIPOS>BOND
     1     1     4    1
     2     1    24    1
     3     1     2    1
     4     1     3    2
     5    25    28    1
     6    25    24    1
     7    25    26    1
     8    25    27    2
     9     6    11    1
    10     6    12    1
    11    29    36    1
    12    29    37    1
    13     7     9    1
    14     7    13    1
    15     8    10    1
    16     8    14    1
    17     4     5    1
    18    28    36    1
    19    30    33    1
    20    30    38    1
    21    31    34    1
    22    31    39    1
    23    32    35    1
    24    32    40    1
    25    41    43   ar
    26    15    19    2
    27    42    43   ar
    28    16    22    2
    29    17    12    1
    30    17    19   ar
    31    17    20   ar
    32    18    19   ar
    33    18    22   ar
    34    18    23    1
    35     9    10    1
    36     9    11    1
    37    10    12    1
    38    11     5    1
    39    33    34    1
    40    33    35    1
    41    34    36    1
    42    35    37    1
    43    37    43    1
    44    20    21   ar
    45    21    22   ar
