@<TRIPOS>MOLECULE
UD2
 46 48 0 0 0
SMALL
GASTEIGER

@<TRIPOS>ATOM
      1 P          22.0441   70.8133   -2.7131 P.3     1  UNL1        0.2189
      2 O          21.3712   69.3511   -2.6896 O.3     1  UNL1       -0.4371
      3 O          23.3474   70.7461   -3.4101 O.2     1  UNL1       -0.5170
      4 O          21.0733   71.8383   -3.4880 O.3     1  UNL1       -0.3112
      5 C          20.0856   72.6273   -2.8221 C.3     1  UNL1        0.1811
      6 C          17.8833   71.4720   -5.4205 C.3     1  UNL1        0.2383
      7 C          18.0242   70.2618   -4.4625 C.3     1  UNL1        0.1895
      8 O          16.8340   69.4711   -4.4610 O.3     1  UNL1       -0.3779
      9 C          18.2295   70.9536   -3.0925 C.3     1  UNL1        0.1713
     10 C          18.7159   72.3698   -3.4550 C.3     1  UNL1        0.1764
     11 O          18.8192   72.4334   -4.8864 O.3     1  UNL1       -0.3308
     12 O          16.9955   71.0164   -2.3755 O.3     1  UNL1       -0.3794
     13 H          16.8735   68.7016   -3.8771 H       1  UNL1        0.2106
     14 H          16.6133   70.1520   -2.1725 H       1  UNL1        0.2105
     15 N          18.2537   71.0945   -6.7862 N.ar    1  UNL1       -0.2551
     16 C          17.2992   70.7185   -7.6558 C.ar    1  UNL1        0.3323
     17 N          17.6109   70.3662   -8.9172 N.ar    1  UNL1       -0.2743
     18 C          18.8945   70.3874   -9.3302 C.ar    1  UNL1        0.2626
     19 C          19.9094   70.7823   -8.4257 C.ar    1  UNL1        0.0795
     20 C          19.5677   71.1343   -7.1684 C.ar    1  UNL1        0.0869
     21 O          16.1376   70.6948   -7.2972 O.2     1  UNL1       -0.2464
     22 O          19.1779   70.0693  -10.4717 O.2     1  UNL1       -0.2670
     23 H          16.9105   70.0964   -9.5310 H       1  UNL1        0.1734
     24 O          22.2685   71.3255   -1.2029 O.3     1  UNL1       -0.2703
     25 P          22.5747   70.5860    0.1944 P.3     1  UNL1        0.2208
     26 O          21.4014   69.5290    0.5100 O.3     1  UNL1       -0.4371
     27 O          23.8680   69.8738    0.1029 O.2     1  UNL1       -0.5170
     28 O          22.6455   71.6784    1.3753 O.3     1  UNL1       -0.2865
     29 C          21.7872   72.8191    1.4329 C.3     1  UNL1        0.2611
     30 C          22.5828   74.0762    1.0729 C.3     1  UNL1        0.1582
     31 C          23.6958   74.2788    2.1057 C.3     1  UNL1        0.1625
     32 C          23.0725   74.3663    3.5014 C.3     1  UNL1        0.1686
     33 C          22.2579   73.0977    3.7680 C.3     1  UNL1        0.1760
     34 O          24.3977   75.4906    1.8192 O.3     1  UNL1       -0.3801
     35 O          22.2163   75.5079    3.5715 O.3     1  UNL1       -0.3794
     36 O          21.2607   72.9523    2.7548 O.3     1  UNL1       -0.3263
     37 H          25.1186   75.6820    2.4347 H       1  UNL1        0.2105
     38 H          21.7858   75.6254    4.4299 H       1  UNL1        0.2105
     39 C          22.8379   74.7651   -1.2505 C.2     1  UNL1        0.2231
     40 C          23.4447   74.6022   -2.6194 C.3     1  UNL1        0.0946
     41 N          23.1733   73.9169   -0.2585 N.am    1  UNL1       -0.2994
     42 O          22.0466   75.6605   -1.0402 O.2     1  UNL1       -0.2751
     43 H          23.8052   73.2003   -0.4264 H       1  UNL1        0.1496
     44 C          21.5830   73.2035    5.1368 C.3     1  UNL1        0.1693
     45 O          22.5812   73.2510    6.1585 O.3     1  UNL1       -0.3794
     46 H          22.2246   73.3184    7.0547 H       1  UNL1        0.2105
@<TRIPOS>BOND
     1    29    30    1
     2    30    41    1
     3    30    31    1
     4    31    34    1
     5    31    32    1
     6    32    35    1
     7    32    33    1
     8    33    36    1
     9    33    44    1
    10    39    40    1
    11    39    42    2
    12    39    41   am
    13    41    43    1
    14    29    28    1
    15    34    37    1
    16    35    38    1
    17    29    36    1
    18    44    45    1
    19    45    46    1
    20    15     6    1
    21    15    16   ar
    22    16    21    2
    23    16    17   ar
    24    17    23    1
    25    17    18   ar
    26    18    19   ar
    27    19    20   ar
    28    15    20   ar
    29    18    22    2
    30     6     7    1
    31     6    11    1
    32     7     9    1
    33     7     8    1
    34     8    13    1
    35     9    10    1
    36     9    12    1
    37    10     5    1
    38    10    11    1
    39    12    14    1
    40     5     4    1
    41     4     1    1
    42     1     2    1
    43     1    24    1
    44     1     3    2
    45    24    25    1
    46    28    25    1
    47    25    26    1
    48    25    27    2
@<TRIPOS>MOLECULE
UD2
 46 48 0 0 0
SMALL
GASTEIGER

@<TRIPOS>ATOM
      1 P          22.7786   71.5807   -2.9946 P.3     1  UNL1        0.2189
      2 O          23.4105   70.1252   -3.2654 O.3     1  UNL1       -0.4371
      3 O          23.5202   72.5944   -3.7766 O.2     1  UNL1       -0.5170
      4 O          21.2311   71.5852   -3.4408 O.3     1  UNL1       -0.3112
      5 C          20.2753   72.5115   -2.9214 C.3     1  UNL1        0.1811
      6 C          18.0133   71.3002   -5.4419 C.3     1  UNL1        0.2383
      7 C          18.2725   70.0745   -4.5294 C.3     1  UNL1        0.1895
      8 O          17.1316   69.2151   -4.4932 O.3     1  UNL1       -0.3779
      9 C          18.5073   70.7392   -3.1508 C.3     1  UNL1        0.1713
     10 C          18.8921   72.1911   -3.4935 C.3     1  UNL1        0.1764
     11 O          18.9183   72.3002   -4.9256 O.3     1  UNL1       -0.3308
     12 O          17.3101   70.7091   -2.3721 O.3     1  UNL1       -0.3794
     13 H          17.2451   68.4335   -3.9357 H       1  UNL1        0.2106
     14 H          16.9892   69.8184   -2.1769 H       1  UNL1        0.2105
     15 N          18.3346   70.9831   -6.8352 N.ar    1  UNL1       -0.2551
     16 C          17.3529   70.6188   -7.6792 C.ar    1  UNL1        0.3323
     17 N          17.6193   70.3216   -8.9648 N.ar    1  UNL1       -0.2743
     18 C          18.8839   70.3873   -9.4286 C.ar    1  UNL1        0.2626
     19 C          19.9270   70.7704   -8.5514 C.ar    1  UNL1        0.0795
     20 C          19.6304   71.0669   -7.2686 C.ar    1  UNL1        0.0869
     21 O          16.2079   70.5554   -7.2748 O.2     1  UNL1       -0.2464
     22 O          19.1264   70.1190  -10.5921 O.2     1  UNL1       -0.2670
     23 H          16.8998   70.0595   -9.5596 H       1  UNL1        0.1734
     24 O          22.8851   71.9290   -1.4260 O.3     1  UNL1       -0.2703
     25 P          22.4775   71.1490   -0.0775 P.3     1  UNL1        0.2208
     26 O          21.0589   70.4167   -0.2897 O.3     1  UNL1       -0.4371
     27 O          23.5107   70.1390    0.2399 O.2     1  UNL1       -0.5170
     28 O          22.3630   72.2002    1.1367 O.3     1  UNL1       -0.2865
     29 C          22.5147   73.6102    0.9626 C.3     1  UNL1        0.2611
     30 C          22.4882   74.2998    2.3288 C.3     1  UNL1        0.1582
     31 C          21.1270   74.0563    2.9877 C.3     1  UNL1        0.1625
     32 C          20.0231   74.5675    2.0580 C.3     1  UNL1        0.1686
     33 C          20.1446   73.8673    0.7019 C.3     1  UNL1        0.1760
     34 O          21.0666   74.7578    4.2317 O.3     1  UNL1       -0.3801
     35 O          20.1624   75.9784    1.8818 O.3     1  UNL1       -0.3794
     36 O          21.4438   74.1083    0.1580 O.3     1  UNL1       -0.3263
     37 H          20.2305   74.6474    4.7049 H       1  UNL1        0.2105
     38 H          19.4947   76.3709    1.3020 H       1  UNL1        0.2105
     39 C          24.2927   74.5673    3.9443 C.2     1  UNL1        0.2231
     40 C          25.3825   74.0004    4.8160 C.3     1  UNL1        0.0946
     41 N          23.5482   73.7476    3.1762 N.am    1  UNL1       -0.2994
     42 O          24.0847   75.7626    3.9333 O.2     1  UNL1       -0.2751
     43 H          23.7148   72.7920    3.1840 H       1  UNL1        0.1496
     44 C          19.0821   74.4161   -0.2522 C.3     1  UNL1        0.1693
     45 O          19.6251   75.5119   -0.9916 O.3     1  UNL1       -0.3794
     46 H          19.0052   75.9102   -1.6178 H       1  UNL1        0.2105
@<TRIPOS>BOND
     1    29    30    1
     2    30    41    1
     3    30    31    1
     4    31    34    1
     5    31    32    1
     6    32    35    1
     7    32    33    1
     8    33    36    1
     9    33    44    1
    10    39    40    1
    11    39    42    2
    12    39    41   am
    13    41    43    1
    14    29    28    1
    15    34    37    1
    16    35    38    1
    17    29    36    1
    18    44    45    1
    19    45    46    1
    20    15     6    1
    21    15    16   ar
    22    16    21    2
    23    16    17   ar
    24    17    23    1
    25    17    18   ar
    26    18    19   ar
    27    19    20   ar
    28    15    20   ar
    29    18    22    2
    30     6     7    1
    31     6    11    1
    32     7     9    1
    33     7     8    1
    34     8    13    1
    35     9    10    1
    36     9    12    1
    37    10     5    1
    38    10    11    1
    39    12    14    1
    40     5     4    1
    41     4     1    1
    42     1     2    1
    43     1    24    1
    44     1     3    2
    45    24    25    1
    46    28    25    1
    47    25    26    1
    48    25    27    2
@<TRIPOS>MOLECULE
UD2
 46 48 0 0 0
SMALL
GASTEIGER

@<TRIPOS>ATOM
      1 P          22.9988   72.2398   -3.2827 P.3     1  UNL1        0.2189
      2 O          23.4184   70.6856   -3.2754 O.3     1  UNL1       -0.4371
      3 O          23.6920   72.9332   -4.3906 O.2     1  UNL1       -0.5170
      4 O          21.4059   72.3644   -3.4845 O.3     1  UNL1       -0.3112
      5 C          20.4613   71.7140   -2.6324 C.3     1  UNL1        0.1811
      6 C          18.0853   71.2799   -5.2975 C.3     1  UNL1        0.2383
      7 C          17.9920   69.9696   -4.4750 C.3     1  UNL1        0.1895
      8 O          16.6734   69.4224   -4.5352 O.3     1  UNL1       -0.3779
      9 C          18.3219   70.4598   -3.0438 C.3     1  UNL1        0.1713
     10 C          19.0690   71.7890   -3.2640 C.3     1  UNL1        0.1764
     11 O          19.1855   71.9845   -4.6823 O.3     1  UNL1       -0.3308
     12 O          17.1207   70.6775   -2.3018 O.3     1  UNL1       -0.3794
     13 H          16.5648   68.6014   -4.0363 H       1  UNL1        0.2106
     14 H          16.5810   69.8843   -2.1840 H       1  UNL1        0.2105
     15 N          18.3803   70.9874   -6.7020 N.ar    1  UNL1       -0.2551
     16 C          17.3704   70.7884   -7.5676 C.ar    1  UNL1        0.3323
     17 N          17.6123   70.5178   -8.8640 N.ar    1  UNL1       -0.2743
     18 C          18.8804   70.4436   -9.3167 C.ar    1  UNL1        0.2626
     19 C          19.9531   70.6519   -8.4167 C.ar    1  UNL1        0.0795
     20 C          19.6814   70.9258   -7.1234 C.ar    1  UNL1        0.0869
     21 O          16.2220   70.8525   -7.1734 O.2     1  UNL1       -0.2464
     22 O          19.1007   70.1991  -10.4898 O.2     1  UNL1       -0.2670
     23 H          16.8725   70.3758   -9.4744 H       1  UNL1        0.1734
     24 O          23.4161   72.9152   -1.8817 O.3     1  UNL1       -0.2703
     25 P          23.4269   74.4277   -1.3293 P.3     1  UNL1        0.2208
     26 O          24.8687   75.0896   -1.6066 O.3     1  UNL1       -0.4371
     27 O          22.3825   75.2137   -2.0220 O.2     1  UNL1       -0.5170
     28 O          23.1338   74.4228    0.2540 O.3     1  UNL1       -0.2865
     29 C          21.8348   74.1974    0.8045 C.3     1  UNL1        0.2611
     30 C          21.8668   74.4564    2.3127 C.3     1  UNL1        0.1582
     31 C          22.8300   73.4644    2.9721 C.3     1  UNL1        0.1625
     32 C          22.3850   72.0381    2.6374 C.3     1  UNL1        0.1686
     33 C          22.3331   71.8723    1.1163 C.3     1  UNL1        0.1760
     34 O          22.8105   73.6506    4.3892 O.3     1  UNL1       -0.3801
     35 O          21.0886   71.8004    3.1888 O.3     1  UNL1       -0.3794
     36 O          21.4438   72.8442    0.5628 O.3     1  UNL1       -0.3263
     37 H          23.3995   73.0545    4.8719 H       1  UNL1        0.2105
     38 H          20.7427   70.9138    3.0143 H       1  UNL1        0.2105
     39 C          21.5230   76.6970    3.2065 C.2     1  UNL1        0.2231
     40 C          21.9935   78.1041    3.4660 C.3     1  UNL1        0.0946
     41 N          22.3251   75.8249    2.5646 N.am    1  UNL1       -0.2994
     42 O          20.4210   76.3480    3.5755 O.2     1  UNL1       -0.2751
     43 H          23.2058   76.1039    2.2685 H       1  UNL1        0.1496
     44 C          21.8320   70.4681    0.7734 C.3     1  UNL1        0.1693
     45 O          22.9027   69.5320    0.9136 O.3     1  UNL1       -0.3794
     46 H          22.6565   68.6189    0.7115 H       1  UNL1        0.2105
@<TRIPOS>BOND
     1    29    30    1
     2    30    41    1
     3    30    31    1
     4    31    34    1
     5    31    32    1
     6    32    35    1
     7    32    33    1
     8    33    36    1
     9    33    44    1
    10    39    40    1
    11    39    42    2
    12    39    41   am
    13    41    43    1
    14    29    28    1
    15    34    37    1
    16    35    38    1
    17    29    36    1
    18    44    45    1
    19    45    46    1
    20    15     6    1
    21    15    16   ar
    22    16    21    2
    23    16    17   ar
    24    17    23    1
    25    17    18   ar
    26    18    19   ar
    27    19    20   ar
    28    15    20   ar
    29    18    22    2
    30     6     7    1
    31     6    11    1
    32     7     9    1
    33     7     8    1
    34     8    13    1
    35     9    10    1
    36     9    12    1
    37    10     5    1
    38    10    11    1
    39    12    14    1
    40     5     4    1
    41     4     1    1
    42     1     2    1
    43     1    24    1
    44     1     3    2
    45    24    25    1
    46    28    25    1
    47    25    26    1
    48    25    27    2
@<TRIPOS>MOLECULE
UD2
 46 48 0 0 0
SMALL
GASTEIGER

@<TRIPOS>ATOM
      1 P          22.1431   73.9588   -6.2779 P.3     1  UNL1        0.2189
      2 O          22.7547   72.6914   -7.0595 O.3     1  UNL1       -0.4371
      3 O          23.0208   75.1329   -6.4776 O.2     1  UNL1       -0.5170
      4 O          20.6732   74.2839   -6.8503 O.3     1  UNL1       -0.3112
      5 C          20.3402   74.1877   -8.2364 C.3     1  UNL1        0.1811
      6 C          18.2271   71.4921   -7.1386 C.3     1  UNL1        0.2383
      7 C          17.3371   72.7559   -7.0254 C.3     1  UNL1        0.1895
      8 O          15.9627   72.4334   -7.2465 O.3     1  UNL1       -0.3779
      9 C          17.8868   73.6443   -8.1682 C.3     1  UNL1        0.1713
     10 C          19.2973   73.0850   -8.4347 C.3     1  UNL1        0.1764
     11 O          19.5221   72.0244   -7.4923 O.3     1  UNL1       -0.3308
     12 O          17.0703   73.5196   -9.3338 O.3     1  UNL1       -0.3794
     13 H          15.3658   73.1915   -7.1855 H       1  UNL1        0.2106
     14 H          16.1548   73.8024   -9.2057 H       1  UNL1        0.2105
     15 N          18.2907   70.7893   -5.8553 N.ar    1  UNL1       -0.2551
     16 C          17.3454   69.8850   -5.5432 C.ar    1  UNL1        0.3323
     17 N          17.3788   69.2243   -4.3707 N.ar    1  UNL1       -0.2743
     18 C          18.3693   69.4605   -3.4866 C.ar    1  UNL1        0.2626
     19 C          19.3715   70.4091   -3.8026 C.ar    1  UNL1        0.0795
     20 C          19.3155   71.0536   -4.9870 C.ar    1  UNL1        0.0869
     21 O          16.4464   69.6618   -6.3309 O.2     1  UNL1       -0.2464
     22 O          18.4009   68.8630   -2.4252 O.2     1  UNL1       -0.2670
     23 H          16.6886   68.5764   -4.1610 H       1  UNL1        0.1734
     24 O          22.0440   73.6235   -4.7059 O.3     1  UNL1       -0.2703
     25 P          23.0836   73.0521   -3.6171 P.3     1  UNL1        0.2208
     26 O          23.1885   71.4518   -3.7641 O.3     1  UNL1       -0.4371
     27 O          24.4153   73.6559   -3.8418 O.2     1  UNL1       -0.5170
     28 O          22.5686   73.4229   -2.1372 O.3     1  UNL1       -0.2865
     29 C          21.3772   72.8770   -1.5681 C.3     1  UNL1        0.2611
     30 C          20.8621   73.8092   -0.4689 C.3     1  UNL1        0.1582
     31 C          21.9103   73.8998    0.6445 C.3     1  UNL1        0.1625
     32 C          22.2055   72.4919    1.1687 C.3     1  UNL1        0.1686
     33 C          22.6691   71.6102    0.0061 C.3     1  UNL1        0.1760
     34 O          21.4068   74.7100    1.7091 O.3     1  UNL1       -0.3801
     35 O          21.0211   71.9388    1.7455 O.3     1  UNL1       -0.3794
     36 O          21.6622   71.5935   -1.0079 O.3     1  UNL1       -0.3263
     37 H          22.0204   74.8115    2.4496 H       1  UNL1        0.2105
     38 H          21.1350   71.0452    2.0984 H       1  UNL1        0.2105
     39 C          19.3702   75.5434   -1.3084 C.2     1  UNL1        0.2231
     40 C          19.1267   76.9139   -1.8838 C.3     1  UNL1        0.0946
     41 N          20.6261   75.1424   -1.0289 N.am    1  UNL1       -0.2994
     42 O          18.4354   74.7995   -1.0962 O.2     1  UNL1       -0.2751
     43 H          21.3738   75.7364   -1.1993 H       1  UNL1        0.1496
     44 C          22.9090   70.1860    0.5105 C.3     1  UNL1        0.1693
     45 O          21.6670   69.4804    0.5560 O.3     1  UNL1       -0.3794
     46 H          21.7434   68.5682    0.8676 H       1  UNL1        0.2105
@<TRIPOS>BOND
     1    29    30    1
     2    30    41    1
     3    30    31    1
     4    31    34    1
     5    31    32    1
     6    32    35    1
     7    32    33    1
     8    33    36    1
     9    33    44    1
    10    39    40    1
    11    39    42    2
    12    39    41   am
    13    41    43    1
    14    29    28    1
    15    34    37    1
    16    35    38    1
    17    29    36    1
    18    44    45    1
    19    45    46    1
    20    15     6    1
    21    15    16   ar
    22    16    21    2
    23    16    17   ar
    24    17    23    1
    25    17    18   ar
    26    18    19   ar
    27    19    20   ar
    28    15    20   ar
    29    18    22    2
    30     6     7    1
    31     6    11    1
    32     7     9    1
    33     7     8    1
    34     8    13    1
    35     9    10    1
    36     9    12    1
    37    10     5    1
    38    10    11    1
    39    12    14    1
    40     5     4    1
    41     4     1    1
    42     1     2    1
    43     1    24    1
    44     1     3    2
    45    24    25    1
    46    28    25    1
    47    25    26    1
    48    25    27    2
@<TRIPOS>MOLECULE
UD2
 46 48 0 0 0
SMALL
GASTEIGER

@<TRIPOS>ATOM
      1 P          21.8830   70.7887   -0.0544 P.3     1  UNL1        0.2189
      2 O          22.5937   69.3964    0.3299 O.3     1  UNL1       -0.4371
      3 O          22.8951   71.7313   -0.5798 O.2     1  UNL1       -0.5170
      4 O          20.7600   70.5256   -1.1783 O.3     1  UNL1       -0.3112
      5 C          20.8693   71.0158   -2.5159 C.3     1  UNL1        0.1811
      6 C          18.3386   71.1212   -5.0695 C.3     1  UNL1        0.2383
      7 C          18.1060   69.7705   -4.3459 C.3     1  UNL1        0.1895
      8 O          16.7241   69.4081   -4.3740 O.3     1  UNL1       -0.3779
      9 C          18.5635   70.0920   -2.9020 C.3     1  UNL1        0.1713
     10 C          19.4729   71.3254   -3.0610 C.3     1  UNL1        0.1764
     11 O          19.5507   71.6216   -4.4645 O.3     1  UNL1       -0.3308
     12 O          17.4376   70.4029   -2.0796 O.3     1  UNL1       -0.3794
     13 H          16.5281   68.5697   -3.9343 H       1  UNL1        0.2106
     14 H          16.8013   69.6803   -1.9929 H       1  UNL1        0.2105
     15 N          18.5276   70.9107   -6.5065 N.ar    1  UNL1       -0.2551
     16 C          17.4557   70.8271   -7.3144 C.ar    1  UNL1        0.3323
     17 N          17.5998   70.6338   -8.6389 N.ar    1  UNL1       -0.2743
     18 C          18.8306   70.5223   -9.1785 C.ar    1  UNL1        0.2626
     19 C          19.9678   70.6094   -8.3399 C.ar    1  UNL1        0.0795
     20 C          19.7939   70.8078   -7.0163 C.ar    1  UNL1        0.0869
     21 O          16.3399   70.9261   -6.8416 O.2     1  UNL1       -0.2464
     22 O          18.9624   70.3477  -10.3771 O.2     1  UNL1       -0.2670
     23 H          16.8162   70.5746   -9.2069 H       1  UNL1        0.1734
     24 O          21.1919   71.4186    1.2567 O.3     1  UNL1       -0.2703
     25 P          21.5615   72.6413    2.2372 P.3     1  UNL1        0.2208
     26 O          22.8004   73.4662    1.6220 O.3     1  UNL1       -0.4371
     27 O          20.3918   73.5368    2.3720 O.2     1  UNL1       -0.5170
     28 O          21.9662   72.0646    3.6850 O.3     1  UNL1       -0.2865
     29 C          22.1610   72.8987    4.8285 C.3     1  UNL1        0.2611
     30 C          21.1024   74.0042    4.8412 C.3     1  UNL1        0.1582
     31 C          21.2735   74.8772    3.5942 C.3     1  UNL1        0.1625
     32 C          22.6980   75.4379    3.5681 C.3     1  UNL1        0.1686
     33 C          23.6953   74.2768    3.6045 C.3     1  UNL1        0.1760
     34 O          20.3364   75.9558    3.6346 O.3     1  UNL1       -0.3801
     35 O          22.9013   76.2785    4.7053 O.3     1  UNL1       -0.3794
     36 O          23.4621   73.4871    4.7724 O.3     1  UNL1       -0.3263
     37 H          20.3881   76.5500    2.8734 H       1  UNL1        0.2105
     38 H          23.7853   76.6687    4.7539 H       1  UNL1        0.2105
     39 C          18.8045   73.8935    5.6441 C.2     1  UNL1        0.2231
     40 C          17.4308   73.2757    5.6415 C.3     1  UNL1        0.0946
     41 N          19.7666   73.4025    4.8383 N.am    1  UNL1       -0.2994
     42 O          19.0455   74.8338    6.3721 O.2     1  UNL1       -0.2751
     43 H          19.5746   72.6502    4.2568 H       1  UNL1        0.1496
     44 C          25.1211   74.8303    3.6390 C.3     1  UNL1        0.1693
     45 O          25.5121   75.0572    4.9948 O.3     1  UNL1       -0.3794
     46 H          26.4074   75.4091    5.0928 H       1  UNL1        0.2105
@<TRIPOS>BOND
     1    29    30    1
     2    30    41    1
     3    30    31    1
     4    31    34    1
     5    31    32    1
     6    32    35    1
     7    32    33    1
     8    33    36    1
     9    33    44    1
    10    39    40    1
    11    39    42    2
    12    39    41   am
    13    41    43    1
    14    29    28    1
    15    34    37    1
    16    35    38    1
    17    29    36    1
    18    44    45    1
    19    45    46    1
    20    15     6    1
    21    15    16   ar
    22    16    21    2
    23    16    17   ar
    24    17    23    1
    25    17    18   ar
    26    18    19   ar
    27    19    20   ar
    28    15    20   ar
    29    18    22    2
    30     6     7    1
    31     6    11    1
    32     7     9    1
    33     7     8    1
    34     8    13    1
    35     9    10    1
    36     9    12    1
    37    10     5    1
    38    10    11    1
    39    12    14    1
    40     5     4    1
    41     4     1    1
    42     1     2    1
    43     1    24    1
    44     1     3    2
    45    24    25    1
    46    28    25    1
    47    25    26    1
    48    25    27    2
@<TRIPOS>MOLECULE
UD2
 46 48 0 0 0
SMALL
GASTEIGER

@<TRIPOS>ATOM
      1 P          21.7778   70.7818   -0.6560 P.3     1  UNL1        0.2189
      2 O          21.5005   69.5384    0.3280 O.3     1  UNL1       -0.4371
      3 O          22.8271   70.4147   -1.6323 O.2     1  UNL1       -0.5170
      4 O          20.4225   71.1576   -1.4407 O.3     1  UNL1       -0.3112
      5 C          20.4082   71.9386   -2.6370 C.3     1  UNL1        0.1811
      6 C          18.0431   71.2954   -5.2694 C.3     1  UNL1        0.2383
      7 C          18.0572   69.9919   -4.4311 C.3     1  UNL1        0.1895
      8 O          16.7828   69.3468   -4.4699 O.3     1  UNL1       -0.3779
      9 C          18.3647   70.5227   -3.0095 C.3     1  UNL1        0.1713
     10 C          19.0075   71.9015   -3.2532 C.3     1  UNL1        0.1764
     11 O          19.0939   72.0880   -4.6749 O.3     1  UNL1       -0.3308
     12 O          17.1586   70.6589   -2.2561 O.3     1  UNL1       -0.3794
     13 H          16.7416   68.5261   -3.9606 H       1  UNL1        0.2106
     14 H          16.6812   69.8289   -2.1232 H       1  UNL1        0.2105
     15 N          18.3442   71.0089   -6.6738 N.ar    1  UNL1       -0.2551
     16 C          17.3381   70.8126   -7.5444 C.ar    1  UNL1        0.3323
     17 N          17.5856   70.5474   -8.8408 N.ar    1  UNL1       -0.2743
     18 C          18.8557   70.4761   -9.2886 C.ar    1  UNL1        0.2626
     19 C          19.9244   70.6816   -8.3832 C.ar    1  UNL1        0.0795
     20 C          19.6471   70.9500   -7.0900 C.ar    1  UNL1        0.0869
     21 O          16.1880   70.8742   -7.1548 O.2     1  UNL1       -0.2464
     22 O          19.0810   70.2365  -10.4617 O.2     1  UNL1       -0.2670
     23 H          16.8485   70.4073   -9.4550 H       1  UNL1        0.1734
     24 O          22.2671   72.0506    0.2066 O.3     1  UNL1       -0.2703
     25 P          21.7067   72.7911    1.5221 P.3     1  UNL1        0.2208
     26 O          20.5914   73.8715    1.0951 O.3     1  UNL1       -0.4371
     27 O          21.1028   71.7925    2.4312 O.2     1  UNL1       -0.5170
     28 O          22.9184   73.5386    2.2743 O.3     1  UNL1       -0.2865
     29 C          22.8034   74.8549    2.8179 C.3     1  UNL1        0.2611
     30 C          24.1695   75.3176    3.3301 C.3     1  UNL1        0.1582
     31 C          24.6243   74.3865    4.4583 C.3     1  UNL1        0.1625
     32 C          23.5621   74.3817    5.5610 C.3     1  UNL1        0.1686
     33 C          22.2191   73.9548    4.9626 C.3     1  UNL1        0.1760
     34 O          25.8650   74.8544    4.9922 O.3     1  UNL1       -0.3801
     35 O          23.4433   75.6930    6.1156 O.3     1  UNL1       -0.3794
     36 O          21.8693   74.8432    3.8994 O.3     1  UNL1       -0.3263
     37 H          26.2131   74.3103    5.7119 H       1  UNL1        0.2105
     38 H          22.7857   75.7641    6.8216 H       1  UNL1        0.2105
     39 C          25.3807   76.3766    1.5000 C.2     1  UNL1        0.2231
     40 C          26.3815   76.3317    0.3753 C.3     1  UNL1        0.0946
     41 N          25.1430   75.2730    2.2361 N.am    1  UNL1       -0.2994
     42 O          24.7877   77.4067    1.7438 O.2     1  UNL1       -0.2751
     43 H          25.6162   74.4490    2.0409 H       1  UNL1        0.1496
     44 C          21.1396   74.0050    6.0455 C.3     1  UNL1        0.1693
     45 O          19.9630   73.3425    5.5773 O.3     1  UNL1       -0.3794
     46 H          19.2352   73.3356    6.2138 H       1  UNL1        0.2105
@<TRIPOS>BOND
     1    29    30    1
     2    30    41    1
     3    30    31    1
     4    31    34    1
     5    31    32    1
     6    32    35    1
     7    32    33    1
     8    33    36    1
     9    33    44    1
    10    39    40    1
    11    39    42    2
    12    39    41   am
    13    41    43    1
    14    29    28    1
    15    34    37    1
    16    35    38    1
    17    29    36    1
    18    44    45    1
    19    45    46    1
    20    15     6    1
    21    15    16   ar
    22    16    21    2
    23    16    17   ar
    24    17    23    1
    25    17    18   ar
    26    18    19   ar
    27    19    20   ar
    28    15    20   ar
    29    18    22    2
    30     6     7    1
    31     6    11    1
    32     7     9    1
    33     7     8    1
    34     8    13    1
    35     9    10    1
    36     9    12    1
    37    10     5    1
    38    10    11    1
    39    12    14    1
    40     5     4    1
    41     4     1    1
    42     1     2    1
    43     1    24    1
    44     1     3    2
    45    24    25    1
    46    28    25    1
    47    25    26    1
    48    25    27    2
@<TRIPOS>MOLECULE
UD2
 46 48 0 0 0
SMALL
GASTEIGER

@<TRIPOS>ATOM
      1 P          21.7335   70.4711   -0.5444 P.3     1  UNL1        0.2189
      2 O          21.7790   69.7372    0.8877 O.3     1  UNL1       -0.4371
      3 O          23.0879   70.4766   -1.1398 O.2     1  UNL1       -0.5170
      4 O          20.7219   69.6834   -1.5190 O.3     1  UNL1       -0.3112
      5 C          20.7922   69.7668   -2.9436 C.3     1  UNL1        0.1811
      6 C          18.6781   71.1772   -5.4887 C.3     1  UNL1        0.2383
      7 C          17.8894   69.9512   -4.9622 C.3     1  UNL1        0.1895
      8 O          16.4808   70.1718   -5.0573 O.3     1  UNL1       -0.3779
      9 C          18.3397   69.8859   -3.4822 C.3     1  UNL1        0.1713
     10 C          19.6668   70.6680   -3.4576 C.3     1  UNL1        0.1764
     11 O          19.9465   71.0787   -4.8054 O.3     1  UNL1       -0.3308
     12 O          17.3729   70.5137   -2.6385 O.3     1  UNL1       -0.3794
     13 H          15.9444   69.4325   -4.7404 H       1  UNL1        0.2106
     14 H          16.5008   70.0973   -2.6606 H       1  UNL1        0.2105
     15 N          18.8643   71.0868   -6.9386 N.ar    1  UNL1       -0.2551
     16 C          17.8343   71.3551   -7.7608 C.ar    1  UNL1        0.3323
     17 N          17.9769   71.2798   -9.0973 N.ar    1  UNL1       -0.2743
     18 C          19.1643   70.9334   -9.6347 C.ar    1  UNL1        0.2626
     19 C          20.2573   70.6493   -8.7811 C.ar    1  UNL1        0.0795
     20 C          20.0870   70.7368   -7.4451 C.ar    1  UNL1        0.0869
     21 O          16.7580   71.6689   -7.2901 O.2     1  UNL1       -0.2464
     22 O          19.2947   70.8653  -10.8442 O.2     1  UNL1       -0.2670
     23 H          17.2237   71.4753   -9.6757 H       1  UNL1        0.1734
     24 O          21.2239   71.9869   -0.3550 O.3     1  UNL1       -0.2703
     25 P          21.9067   73.3343    0.2030 P.3     1  UNL1        0.2208
     26 O          20.8088   74.2008    1.0013 O.3     1  UNL1       -0.4371
     27 O          23.0165   72.9837    1.1161 O.2     1  UNL1       -0.5170
     28 O          22.4783   74.1968   -1.0307 O.3     1  UNL1       -0.2865
     29 C          23.5707   73.7638   -1.8433 C.3     1  UNL1        0.2611
     30 C          24.5733   74.9091   -2.0046 C.3     1  UNL1        0.1582
     31 C          23.8910   76.0757   -2.7257 C.3     1  UNL1        0.1625
     32 C          23.3501   75.5840   -4.0711 C.3     1  UNL1        0.1686
     33 C          22.3944   74.4124   -3.8300 C.3     1  UNL1        0.1760
     34 O          24.8404   77.1213   -2.9460 O.3     1  UNL1       -0.3801
     35 O          24.4359   75.1537   -4.8940 O.3     1  UNL1       -0.3794
     36 O          23.0827   73.3748   -3.1289 O.3     1  UNL1       -0.3263
     37 H          24.4757   77.8941   -3.3989 H       1  UNL1        0.2105
     38 H          24.1658   74.8277   -5.7639 H       1  UNL1        0.2105
     39 C          26.3218   75.6815   -0.4934 C.2     1  UNL1        0.2231
     40 C          26.7918   76.1346    0.8639 C.3     1  UNL1        0.0946
     41 N          25.0297   75.3494   -0.6839 N.am    1  UNL1       -0.2994
     42 O          27.1066   75.6153   -1.4164 O.2     1  UNL1       -0.2751
     43 H          24.4021   75.4013    0.0540 H       1  UNL1        0.1496
     44 C          21.8956   73.8767   -5.1735 C.3     1  UNL1        0.1693
     45 O          22.6745   72.7401   -5.5526 O.3     1  UNL1       -0.3794
     46 H          22.4133   72.3475   -6.3969 H       1  UNL1        0.2105
@<TRIPOS>BOND
     1    29    30    1
     2    30    41    1
     3    30    31    1
     4    31    34    1
     5    31    32    1
     6    32    35    1
     7    32    33    1
     8    33    36    1
     9    33    44    1
    10    39    40    1
    11    39    42    2
    12    39    41   am
    13    41    43    1
    14    29    28    1
    15    34    37    1
    16    35    38    1
    17    29    36    1
    18    44    45    1
    19    45    46    1
    20    15     6    1
    21    15    16   ar
    22    16    21    2
    23    16    17   ar
    24    17    23    1
    25    17    18   ar
    26    18    19   ar
    27    19    20   ar
    28    15    20   ar
    29    18    22    2
    30     6     7    1
    31     6    11    1
    32     7     9    1
    33     7     8    1
    34     8    13    1
    35     9    10    1
    36     9    12    1
    37    10     5    1
    38    10    11    1
    39    12    14    1
    40     5     4    1
    41     4     1    1
    42     1     2    1
    43     1    24    1
    44     1     3    2
    45    24    25    1
    46    28    25    1
    47    25    26    1
    48    25    27    2
@<TRIPOS>MOLECULE
UD2
 46 48 0 0 0
SMALL
GASTEIGER

@<TRIPOS>ATOM
      1 P          22.9117   72.1720   -3.1969 P.3     1  UNL1        0.2189
      2 O          23.4736   70.6641   -3.1530 O.3     1  UNL1       -0.4371
      3 O          23.6269   72.9353   -4.2432 O.2     1  UNL1       -0.5170
      4 O          21.3366   72.1480   -3.5320 O.3     1  UNL1       -0.3112
      5 C          20.3341   71.9243   -2.5389 C.3     1  UNL1        0.1811
      6 C          18.0281   71.3659   -5.2420 C.3     1  UNL1        0.2383
      7 C          17.9688   70.0636   -4.4039 C.3     1  UNL1        0.1895
      8 O          16.6734   69.4656   -4.4814 O.3     1  UNL1       -0.3779
      9 C          18.2522   70.5841   -2.9734 C.3     1  UNL1        0.1713
     10 C          18.9524   71.9381   -3.1973 C.3     1  UNL1        0.1764
     11 O          19.0887   72.1199   -4.6157 O.3     1  UNL1       -0.3308
     12 O          17.0296   70.7652   -2.2571 O.3     1  UNL1       -0.3794
     13 H          16.5865   68.6475   -3.9737 H       1  UNL1        0.2106
     14 H          16.5182   69.9534   -2.1388 H       1  UNL1        0.2105
     15 N          18.3610   71.0671   -6.6366 N.ar    1  UNL1       -0.2551
     16 C          17.3750   70.8561   -7.5266 C.ar    1  UNL1        0.3323
     17 N          17.6519   70.5795   -8.8147 N.ar    1  UNL1       -0.2743
     18 C          18.9317   70.5112   -9.2343 C.ar    1  UNL1        0.2626
     19 C          19.9795   70.7321   -8.3083 C.ar    1  UNL1        0.0795
     20 C          19.6728   71.0118   -7.0241 C.ar    1  UNL1        0.0869
     21 O          16.2165   70.9147   -7.1624 O.2     1  UNL1       -0.2464
     22 O          19.1836   70.2613  -10.3999 O.2     1  UNL1       -0.2670
     23 H          16.9289   70.4288   -9.4430 H       1  UNL1        0.1734
     24 O          23.1446   72.8737   -1.7663 O.3     1  UNL1       -0.2703
     25 P          23.0908   74.3967   -1.2462 P.3     1  UNL1        0.2208
     26 O          24.5456   75.0692   -1.4049 O.3     1  UNL1       -0.4371
     27 O          22.1065   75.1572   -2.0470 O.2     1  UNL1       -0.5170
     28 O          22.6547   74.4194    0.3036 O.3     1  UNL1       -0.2865
     29 C          23.3806   73.7354    1.3266 C.3     1  UNL1        0.2611
     30 C          22.4998   72.6406    1.9335 C.3     1  UNL1        0.1582
     31 C          21.2738   73.2868    2.5860 C.3     1  UNL1        0.1625
     32 C          21.7413   74.3022    3.6323 C.3     1  UNL1        0.1686
     33 C          22.6515   75.3333    2.9597 C.3     1  UNL1        0.1760
     34 O          20.4829   72.2784    3.2191 O.3     1  UNL1       -0.3801
     35 O          22.4639   73.6271    4.6635 O.3     1  UNL1       -0.3794
     36 O          23.7551   74.6639    2.3464 O.3     1  UNL1       -0.3263
     37 H          19.6880   72.6174    3.6531 H       1  UNL1        0.2105
     38 H          22.7915   74.2109    5.3620 H       1  UNL1        0.2105
     39 C          22.4990   70.4451    0.8765 C.2     1  UNL1        0.2231
     40 C          22.0529   69.4991   -0.2074 C.3     1  UNL1        0.0946
     41 N          22.0656   71.7211    0.8787 N.am    1  UNL1       -0.2994
     42 O          23.2490   70.0585    1.7483 O.2     1  UNL1       -0.2751
     43 H          21.4667   72.0309    0.1813 H       1  UNL1        0.1496
     44 C          23.1710   76.3168    4.0100 C.3     1  UNL1        0.1693
     45 O          24.2843   75.7393    4.6951 O.3     1  UNL1       -0.3794
     46 H          24.6655   76.3089    5.3772 H       1  UNL1        0.2105
@<TRIPOS>BOND
     1    29    30    1
     2    30    41    1
     3    30    31    1
     4    31    34    1
     5    31    32    1
     6    32    35    1
     7    32    33    1
     8    33    36    1
     9    33    44    1
    10    39    40    1
    11    39    42    2
    12    39    41   am
    13    41    43    1
    14    29    28    1
    15    34    37    1
    16    35    38    1
    17    29    36    1
    18    44    45    1
    19    45    46    1
    20    15     6    1
    21    15    16   ar
    22    16    21    2
    23    16    17   ar
    24    17    23    1
    25    17    18   ar
    26    18    19   ar
    27    19    20   ar
    28    15    20   ar
    29    18    22    2
    30     6     7    1
    31     6    11    1
    32     7     9    1
    33     7     8    1
    34     8    13    1
    35     9    10    1
    36     9    12    1
    37    10     5    1
    38    10    11    1
    39    12    14    1
    40     5     4    1
    41     4     1    1
    42     1     2    1
    43     1    24    1
    44     1     3    2
    45    24    25    1
    46    28    25    1
    47    25    26    1
    48    25    27    2
@<TRIPOS>MOLECULE
UD2
 46 48 0 0 0
SMALL
GASTEIGER

@<TRIPOS>ATOM
      1 P          23.0191   72.5516   -3.7522 P.3     1  UNL1        0.2189
      2 O          24.3158   73.5033   -3.6888 O.3     1  UNL1       -0.4371
      3 O          23.3857   71.1872   -3.3129 O.2     1  UNL1       -0.5170
      4 O          21.8750   73.1385   -2.7825 O.3     1  UNL1       -0.3112
      5 C          21.4256   72.4573   -1.6097 C.3     1  UNL1        0.1811
      6 C          23.0836   72.3391    1.5800 C.3     1  UNL1        0.2383
      7 C          22.5149   70.9108    1.3832 C.3     1  UNL1        0.1895
      8 O          23.3443   69.9389    2.0230 O.3     1  UNL1       -0.3779
      9 C          22.5632   70.7507   -0.1561 C.3     1  UNL1        0.1713
     10 C          22.6164   72.1972   -0.6837 C.3     1  UNL1        0.1764
     11 O          22.5499   73.0705    0.4549 O.3     1  UNL1       -0.3308
     12 O          23.7345   70.0321   -0.5464 O.3     1  UNL1       -0.3794
     13 H          23.0297   69.0297    1.9286 H       1  UNL1        0.2106
     14 H          23.7819   69.1337   -0.1928 H       1  UNL1        0.2105
     15 N          22.6097   72.9137    2.8410 N.ar    1  UNL1       -0.2551
     16 C          21.3734   72.6225    3.2831 C.ar    1  UNL1        0.3323
     17 N          20.9118   73.1366    4.4385 N.ar    1  UNL1       -0.2743
     18 C          21.6893   73.9556    5.1755 C.ar    1  UNL1        0.2626
     19 C          22.9933   74.2698    4.7226 C.ar    1  UNL1        0.0795
     20 C          23.4317   73.7368    3.5628 C.ar    1  UNL1        0.0869
     21 O          20.6614   71.8853    2.6290 O.2     1  UNL1       -0.2464
     22 O          21.2729   74.4212    6.2216 O.2     1  UNL1       -0.2670
     23 H          20.0174   72.9173    4.7421 H       1  UNL1        0.1734
     24 O          22.4654   72.4985   -5.2635 O.3     1  UNL1       -0.2703
     25 P          21.4476   73.4118   -6.1138 P.3     1  UNL1        0.2208
     26 O          21.0961   74.7432   -5.2786 O.3     1  UNL1       -0.4371
     27 O          22.0775   73.7879   -7.3984 O.2     1  UNL1       -0.5170
     28 O          20.0959   72.5849   -6.4002 O.3     1  UNL1       -0.2865
     29 C          18.8534   72.8780   -5.7587 C.3     1  UNL1        0.2611
     30 C          17.9795   71.6216   -5.7389 C.3     1  UNL1        0.1582
     31 C          17.6715   71.2016   -7.1794 C.3     1  UNL1        0.1625
     32 C          16.9956   72.3674   -7.9063 C.3     1  UNL1        0.1686
     33 C          17.9077   73.5953   -7.8426 C.3     1  UNL1        0.1760
     34 O          16.7954   70.0721   -7.1702 O.3     1  UNL1       -0.3801
     35 O          15.7485   72.6649   -7.2757 O.3     1  UNL1       -0.3794
     36 O          18.1800   73.9141   -6.4765 O.3     1  UNL1       -0.3263
     37 H          16.5585   69.7514   -8.0512 H       1  UNL1        0.2105
     38 H          15.2647   73.3960   -7.6847 H       1  UNL1        0.2105
     39 C          18.0925   69.8608   -4.0582 C.2     1  UNL1        0.2231
     40 C          18.8254   68.7485   -3.3552 C.3     1  UNL1        0.0946
     41 N          18.6931   70.5399   -5.0553 N.am    1  UNL1       -0.2994
     42 O          16.9607   70.1461   -3.7269 O.2     1  UNL1       -0.2751
     43 H          19.5983   70.3128   -5.3199 H       1  UNL1        0.1496
     44 C          17.2137   74.7814   -8.5149 C.3     1  UNL1        0.1693
     45 O          18.1294   75.8736   -8.6191 O.3     1  UNL1       -0.3794
     46 H          17.7563   76.6619   -9.0367 H       1  UNL1        0.2105
@<TRIPOS>BOND
     1    29    30    1
     2    30    41    1
     3    30    31    1
     4    31    34    1
     5    31    32    1
     6    32    35    1
     7    32    33    1
     8    33    36    1
     9    33    44    1
    10    39    40    1
    11    39    42    2
    12    39    41   am
    13    41    43    1
    14    29    28    1
    15    34    37    1
    16    35    38    1
    17    29    36    1
    18    44    45    1
    19    45    46    1
    20    15     6    1
    21    15    16   ar
    22    16    21    2
    23    16    17   ar
    24    17    23    1
    25    17    18   ar
    26    18    19   ar
    27    19    20   ar
    28    15    20   ar
    29    18    22    2
    30     6     7    1
    31     6    11    1
    32     7     9    1
    33     7     8    1
    34     8    13    1
    35     9    10    1
    36     9    12    1
    37    10     5    1
    38    10    11    1
    39    12    14    1
    40     5     4    1
    41     4     1    1
    42     1     2    1
    43     1    24    1
    44     1     3    2
    45    24    25    1
    46    28    25    1
    47    25    26    1
    48    25    27    2
@<TRIPOS>MOLECULE
UD2
 46 48 0 0 0
SMALL
GASTEIGER

@<TRIPOS>ATOM
      1 P          22.7331   73.2531   -3.7698 P.3     1  UNL1        0.2189
      2 O          24.3014   73.4497   -3.4647 O.3     1  UNL1       -0.4371
      3 O          22.4345   71.8111   -3.9124 O.2     1  UNL1       -0.5170
      4 O          21.8696   73.8624   -2.5545 O.3     1  UNL1       -0.3112
      5 C          21.4022   73.0715   -1.4602 C.3     1  UNL1        0.1811
      6 C          23.1848   72.3410    1.5771 C.3     1  UNL1        0.2383
      7 C          22.4494   71.0216    1.2299 C.3     1  UNL1        0.1895
      8 O          23.1927   69.8887    1.6836 O.3     1  UNL1       -0.3779
      9 C          22.4066   71.0705   -0.3171 C.3     1  UNL1        0.1713
     10 C          22.5982   72.5620   -0.6521 C.3     1  UNL1        0.1764
     11 O          22.6849   73.2726    0.5933 O.3     1  UNL1       -0.3308
     12 O          23.4693   70.2926   -0.8705 O.3     1  UNL1       -0.3794
     13 H          22.7731   69.0395    1.4902 H       1  UNL1        0.2106
     14 H          23.4313   69.3542   -0.6417 H       1  UNL1        0.2105
     15 N          22.8391   72.7836    2.9297 N.ar    1  UNL1       -0.2551
     16 C          21.6307   72.4862    3.4398 C.ar    1  UNL1        0.3323
     17 N          21.2861   72.8803    4.6800 N.ar    1  UNL1       -0.2743
     18 C          22.1552   73.5827    5.4350 C.ar    1  UNL1        0.2626
     19 C          23.4310   73.9018    4.9111 C.ar    1  UNL1        0.0795
     20 C          23.7514   73.4903    3.6662 C.ar    1  UNL1        0.0869
     21 O          20.8371   71.8533    2.7704 O.2     1  UNL1       -0.2464
     22 O          21.8447   73.9397    6.5578 O.2     1  UNL1       -0.2670
     23 H          20.4103   72.6585    5.0320 H       1  UNL1        0.1734
     24 O          22.3516   74.0181   -5.1346 O.3     1  UNL1       -0.2703
     25 P          21.6305   73.5704   -6.5030 P.3     1  UNL1        0.2208
     26 O          21.4113   74.8612   -7.4408 O.3     1  UNL1       -0.4371
     27 O          22.4798   72.5866   -7.2095 O.2     1  UNL1       -0.5170
     28 O          20.2043   72.9039   -6.1648 O.3     1  UNL1       -0.2865
     29 C          18.9883   73.3028   -6.8001 C.3     1  UNL1        0.2611
     30 C          17.8133   72.5462   -6.1759 C.3     1  UNL1        0.1582
     31 C          17.9955   71.0452   -6.4211 C.3     1  UNL1        0.1625
     32 C          18.1123   70.7954   -7.9272 C.3     1  UNL1        0.1686
     33 C          19.2762   71.6197   -8.4841 C.3     1  UNL1        0.1760
     34 O          16.8660   70.3369   -5.9057 O.3     1  UNL1       -0.3801
     35 O          16.8985   71.1860   -8.5717 O.3     1  UNL1       -0.3794
     36 O          19.0596   73.0023   -8.1954 O.3     1  UNL1       -0.3263
     37 H          16.9147   69.3786   -6.0263 H       1  UNL1        0.2105
     38 H          16.9018   71.0557   -9.5304 H       1  UNL1        0.2105
     39 C          18.3821   71.9584   -3.8805 C.2     1  UNL1        0.2231
     40 C          18.3430   72.2246   -2.3985 C.3     1  UNL1        0.0946
     41 N          17.7746   72.8057   -4.7344 N.am    1  UNL1       -0.2994
     42 O          18.9608   70.9807   -4.3063 O.2     1  UNL1       -0.2751
     43 H          17.3110   73.5870   -4.3944 H       1  UNL1        0.1496
     44 C          19.3622   71.4219   -9.9986 C.3     1  UNL1        0.1693
     45 O          18.6904   70.2136  -10.3609 O.3     1  UNL1       -0.3794
     46 H          18.7050   70.0239  -11.3089 H       1  UNL1        0.2105
@<TRIPOS>BOND
     1    29    30    1
     2    30    41    1
     3    30    31    1
     4    31    34    1
     5    31    32    1
     6    32    35    1
     7    32    33    1
     8    33    36    1
     9    33    44    1
    10    39    40    1
    11    39    42    2
    12    39    41   am
    13    41    43    1
    14    29    28    1
    15    34    37    1
    16    35    38    1
    17    29    36    1
    18    44    45    1
    19    45    46    1
    20    15     6    1
    21    15    16   ar
    22    16    21    2
    23    16    17   ar
    24    17    23    1
    25    17    18   ar
    26    18    19   ar
    27    19    20   ar
    28    15    20   ar
    29    18    22    2
    30     6     7    1
    31     6    11    1
    32     7     9    1
    33     7     8    1
    34     8    13    1
    35     9    10    1
    36     9    12    1
    37    10     5    1
    38    10    11    1
    39    12    14    1
    40     5     4    1
    41     4     1    1
    42     1     2    1
    43     1    24    1
    44     1     3    2
    45    24    25    1
    46    28    25    1
    47    25    26    1
    48    25    27    2
@<TRIPOS>MOLECULE
UD2
 46 48 0 0 0
SMALL
GASTEIGER

@<TRIPOS>ATOM
      1 P          22.2107   71.0600   -2.7112 P.3     1  UNL1        0.2189
      2 O          23.6291   70.5267   -3.2543 O.3     1  UNL1       -0.4371
      3 O          21.5401   69.9867   -1.9449 O.2     1  UNL1       -0.5170
      4 O          22.4470   72.3346   -1.7556 O.3     1  UNL1       -0.3112
      5 C          22.1667   72.3182   -0.3547 C.3     1  UNL1        0.1811
      6 C          22.1680   74.8483    2.2017 C.3     1  UNL1        0.2383
      7 C          23.6388   74.7831    1.7172 C.3     1  UNL1        0.1895
      8 O          24.2719   76.0586    1.8356 O.3     1  UNL1       -0.3779
      9 C          23.4740   74.3841    0.2302 C.3     1  UNL1        0.1713
     10 C          22.0691   73.7555    0.1625 C.3     1  UNL1        0.1764
     11 O          21.5336   73.7601    1.4954 O.3     1  UNL1       -0.3308
     12 O          23.5465   75.5392   -0.6072 O.3     1  UNL1       -0.3794
     13 H          25.1940   76.0688    1.5453 H       1  UNL1        0.2106
     14 H          24.3901   76.0087   -0.5588 H       1  UNL1        0.2105
     15 N          22.0920   74.6383    3.6492 N.ar    1  UNL1       -0.2551
     16 C          22.3895   73.4320    4.1641 C.ar    1  UNL1        0.3323
     17 N          22.3279   73.2107    5.4905 N.ar    1  UNL1       -0.2743
     18 C          21.9660   74.2035    6.3283 C.ar    1  UNL1        0.2626
     19 C          21.6512   75.4786    5.8000 C.ar    1  UNL1        0.0795
     20 C          21.7254   75.6735    4.4665 C.ar    1  UNL1        0.0869
     21 O          22.7175   72.5276    3.4206 O.2     1  UNL1       -0.2464
     22 O          21.9103   74.0046    7.5290 O.2     1  UNL1       -0.2670
     23 H          22.5445   72.3346    5.8451 H       1  UNL1        0.1734
     24 O          21.2853   71.4887   -3.9575 O.3     1  UNL1       -0.2703
     25 P          21.3753   72.6500   -5.0693 P.3     1  UNL1        0.2208
     26 O          20.9380   74.0547   -4.4139 O.3     1  UNL1       -0.4371
     27 O          22.7647   72.7500   -5.5672 O.2     1  UNL1       -0.5170
     28 O          20.3900   72.2985   -6.2933 O.3     1  UNL1       -0.2865
     29 C          20.7709   72.4361   -7.6634 C.3     1  UNL1        0.2611
     30 C          20.3100   73.7982   -8.1879 C.3     1  UNL1        0.1582
     31 C          18.7814   73.8709   -8.1205 C.3     1  UNL1        0.1625
     32 C          18.1899   72.7093   -8.9237 C.3     1  UNL1        0.1686
     33 C          18.7326   71.3888   -8.3707 C.3     1  UNL1        0.1760
     34 O          18.3377   75.1108   -8.6766 O.3     1  UNL1       -0.3801
     35 O          18.5604   72.8407  -10.2973 O.3     1  UNL1       -0.3794
     36 O          20.1602   71.3988   -8.4337 O.3     1  UNL1       -0.3263
     37 H          17.3775   75.2250   -8.6657 H       1  UNL1        0.2105
     38 H          18.2197   72.1364  -10.8664 H       1  UNL1        0.2105
     39 C          21.9245   75.5870   -7.8255 C.2     1  UNL1        0.2231
     40 C          22.5188   76.6805   -6.9771 C.3     1  UNL1        0.0946
     41 N          20.8877   74.8615   -7.3620 N.am    1  UNL1       -0.2994
     42 O          22.3792   75.3587   -8.9270 O.2     1  UNL1       -0.2751
     43 H          20.5245   75.0431   -6.4810 H       1  UNL1        0.1496
     44 C          18.1930   70.2262   -9.2058 C.3     1  UNL1        0.1693
     45 O          18.8911   70.1692  -10.4515 O.3     1  UNL1       -0.3794
     46 H          18.6002   69.4541  -11.0337 H       1  UNL1        0.2105
@<TRIPOS>BOND
     1    29    30    1
     2    30    41    1
     3    30    31    1
     4    31    34    1
     5    31    32    1
     6    32    35    1
     7    32    33    1
     8    33    36    1
     9    33    44    1
    10    39    40    1
    11    39    42    2
    12    39    41   am
    13    41    43    1
    14    29    28    1
    15    34    37    1
    16    35    38    1
    17    29    36    1
    18    44    45    1
    19    45    46    1
    20    15     6    1
    21    15    16   ar
    22    16    21    2
    23    16    17   ar
    24    17    23    1
    25    17    18   ar
    26    18    19   ar
    27    19    20   ar
    28    15    20   ar
    29    18    22    2
    30     6     7    1
    31     6    11    1
    32     7     9    1
    33     7     8    1
    34     8    13    1
    35     9    10    1
    36     9    12    1
    37    10     5    1
    38    10    11    1
    39    12    14    1
    40     5     4    1
    41     4     1    1
    42     1     2    1
    43     1    24    1
    44     1     3    2
    45    24    25    1
    46    28    25    1
    47    25    26    1
    48    25    27    2
@<TRIPOS>MOLECULE
UD2
 46 48 0 0 0
SMALL
GASTEIGER

@<TRIPOS>ATOM
      1 P          22.8081   75.4002   -4.0168 P.3     1  UNL1        0.2189
      2 O          21.8657   76.6804   -3.7631 O.3     1  UNL1       -0.4371
      3 O          23.6366   75.6276   -5.2212 O.2     1  UNL1       -0.5170
      4 O          23.7653   75.1775   -2.7409 O.3     1  UNL1       -0.3112
      5 C          23.3692   75.4996   -1.4065 C.3     1  UNL1        0.1811
      6 C          21.4582   73.7458    1.0853 C.3     1  UNL1        0.2383
      7 C          20.5844   74.9711    0.7150 C.3     1  UNL1        0.1895
      8 O          19.1950   74.6669    0.8523 O.3     1  UNL1       -0.3779
      9 C          20.9558   75.1984   -0.7709 C.3     1  UNL1        0.1713
     10 C          22.3171   74.4949   -0.9306 C.3     1  UNL1        0.1764
     11 O          22.6842   73.9760    0.3576 O.3     1  UNL1       -0.3308
     12 O          19.9800   74.6007   -1.6261 O.3     1  UNL1       -0.3794
     13 H          18.6074   75.4025    0.6324 H       1  UNL1        0.2106
     14 H          19.0906   74.9656   -1.5246 H       1  UNL1        0.2105
     15 N          21.7125   73.7105    2.5272 N.ar    1  UNL1       -0.2551
     16 C          21.5499   72.5601    3.2046 C.ar    1  UNL1        0.3323
     17 N          21.7762   72.4987    4.5302 N.ar    1  UNL1       -0.2743
     18 C          22.1741   73.5979    5.2024 C.ar    1  UNL1        0.2626
     19 C          22.3502   74.8154    4.5018 C.ar    1  UNL1        0.0795
     20 C          22.1202   74.8471    3.1723 C.ar    1  UNL1        0.0869
     21 O          21.1917   71.5610    2.6113 O.2     1  UNL1       -0.2464
     22 O          22.3797   73.5436    6.4021 O.2     1  UNL1       -0.2670
     23 H          21.6530   71.6614    5.0034 H       1  UNL1        0.1734
     24 O          21.8920   74.0937   -4.2340 O.3     1  UNL1       -0.2703
     25 P          22.1832   72.5983   -4.7555 P.3     1  UNL1        0.2208
     26 O          22.5322   72.6371   -6.3273 O.3     1  UNL1       -0.4371
     27 O          23.3279   72.0299   -4.0106 O.2     1  UNL1       -0.5170
     28 O          20.8797   71.6836   -4.5172 O.3     1  UNL1       -0.2865
     29 C          19.6337   72.2090   -4.0560 C.3     1  UNL1        0.2611
     30 C          19.1481   71.3935   -2.8553 C.3     1  UNL1        0.1582
     31 C          18.9082   69.9461   -3.2954 C.3     1  UNL1        0.1625
     32 C          17.9022   69.9349   -4.4497 C.3     1  UNL1        0.1686
     33 C          18.4361   70.8068   -5.5893 C.3     1  UNL1        0.1760
     34 O          18.3845   69.1942   -2.1983 O.3     1  UNL1       -0.3801
     35 O          16.6502   70.4534   -3.9972 O.3     1  UNL1       -0.3794
     36 O          18.6669   72.1314   -5.1056 O.3     1  UNL1       -0.3263
     37 H          18.2091   68.2662   -2.4060 H       1  UNL1        0.2105
     38 H          15.9638   70.4765   -4.6786 H       1  UNL1        0.2105
     39 C          21.0858   70.4416   -1.7253 C.2     1  UNL1        0.2231
     40 C          22.1315   70.4708   -0.6417 C.3     1  UNL1        0.0946
     41 N          20.1648   71.4225   -1.8007 N.am    1  UNL1       -0.2994
     42 O          21.0722   69.5346   -2.5311 O.2     1  UNL1       -0.2751
     43 H          20.1747   72.1473   -1.1561 H       1  UNL1        0.1496
     44 C          17.4094   70.8491   -6.7227 C.3     1  UNL1        0.1693
     45 O          16.5204   69.7365   -6.6029 O.3     1  UNL1       -0.3794
     46 H          15.8413   69.6992   -7.2902 H       1  UNL1        0.2105
@<TRIPOS>BOND
     1    29    30    1
     2    30    41    1
     3    30    31    1
     4    31    34    1
     5    31    32    1
     6    32    35    1
     7    32    33    1
     8    33    36    1
     9    33    44    1
    10    39    40    1
    11    39    42    2
    12    39    41   am
    13    41    43    1
    14    29    28    1
    15    34    37    1
    16    35    38    1
    17    29    36    1
    18    44    45    1
    19    45    46    1
    20    15     6    1
    21    15    16   ar
    22    16    21    2
    23    16    17   ar
    24    17    23    1
    25    17    18   ar
    26    18    19   ar
    27    19    20   ar
    28    15    20   ar
    29    18    22    2
    30     6     7    1
    31     6    11    1
    32     7     9    1
    33     7     8    1
    34     8    13    1
    35     9    10    1
    36     9    12    1
    37    10     5    1
    38    10    11    1
    39    12    14    1
    40     5     4    1
    41     4     1    1
    42     1     2    1
    43     1    24    1
    44     1     3    2
    45    24    25    1
    46    28    25    1
    47    25    26    1
    48    25    27    2
@<TRIPOS>MOLECULE
UD2
 46 48 0 0 0
SMALL
GASTEIGER

@<TRIPOS>ATOM
      1 P          21.8344   71.8751   -3.6868 P.3     1  UNL1        0.2189
      2 O          21.7914   72.6311   -5.1073 O.3     1  UNL1       -0.4371
      3 O          23.2340   71.5312   -3.3525 O.2     1  UNL1       -0.5170
      4 O          21.2319   72.8402   -2.5470 O.3     1  UNL1       -0.3112
      5 C          20.9601   72.3960   -1.2165 C.3     1  UNL1        0.1811
      6 C          23.0391   72.2604    1.7154 C.3     1  UNL1        0.2383
      7 C          22.5436   70.8048    1.5214 C.3     1  UNL1        0.1895
      8 O          23.5137   69.8684    1.9945 O.3     1  UNL1       -0.3779
      9 C          22.3932   70.7146   -0.0170 C.3     1  UNL1        0.1713
     10 C          22.2797   72.1825   -0.4708 C.3     1  UNL1        0.1764
     11 O          22.3113   72.9993    0.7104 O.3     1  UNL1       -0.3308
     12 O          23.5452   70.0993   -0.5957 O.3     1  UNL1       -0.3794
     13 H          23.2493   68.9438    1.8953 H       1  UNL1        0.2106
     14 H          23.6986   69.1923   -0.2987 H       1  UNL1        0.2105
     15 N          22.7041   72.7450    3.0563 N.ar    1  UNL1       -0.2551
     16 C          21.4714   72.5355    3.5518 C.ar    1  UNL1        0.3323
     17 N          21.1359   72.9700    4.7810 N.ar    1  UNL1       -0.2743
     18 C          22.0385   73.6248    5.5393 C.ar    1  UNL1        0.2626
     19 C          23.3401   73.8513    5.0306 C.ar    1  UNL1        0.0795
     20 C          23.6504   73.4010    3.7967 C.ar    1  UNL1        0.0869
     21 O          20.6475   71.9463    2.8793 O.2     1  UNL1       -0.2464
     22 O          21.7362   74.0182    6.6521 O.2     1  UNL1       -0.2670
     23 H          20.2423   72.8117    5.1226 H       1  UNL1        0.1734
     24 O          20.9553   70.5283   -3.7684 O.3     1  UNL1       -0.2703
     25 P          19.3740   70.2242   -3.7740 P.3     1  UNL1        0.2208
     26 O          19.1295   68.6522   -3.5237 O.3     1  UNL1       -0.4371
     27 O          18.7180   71.0020   -2.7001 O.2     1  UNL1       -0.5170
     28 O          18.7517   70.6445   -5.1983 O.3     1  UNL1       -0.2865
     29 C          19.2103   71.7723   -5.9459 C.3     1  UNL1        0.2611
     30 C          18.0409   72.7263   -6.2011 C.3     1  UNL1        0.1582
     31 C          16.9824   72.0086   -7.0442 C.3     1  UNL1        0.1625
     32 C          17.6265   71.5192   -8.3442 C.3     1  UNL1        0.1686
     33 C          18.8122   70.6115   -8.0064 C.3     1  UNL1        0.1760
     34 O          15.9202   72.9152   -7.3493 O.3     1  UNL1       -0.3801
     35 O          18.0837   72.6405   -9.1025 O.3     1  UNL1       -0.3794
     36 O          19.7441   71.3298   -7.1956 O.3     1  UNL1       -0.3263
     37 H          15.2126   72.5265   -7.8817 H       1  UNL1        0.2105
     38 H          18.5045   72.4040   -9.9409 H       1  UNL1        0.2105
     39 C          16.3688   72.4943   -4.4438 C.2     1  UNL1        0.2231
     40 C          15.7652   72.9128   -3.1289 C.3     1  UNL1        0.0946
     41 N          17.4542   73.1342   -4.9220 N.am    1  UNL1       -0.2994
     42 O          15.8780   71.5805   -5.0733 O.2     1  UNL1       -0.2751
     43 H          17.8463   73.8654   -4.4195 H       1  UNL1        0.1496
     44 C          19.4979   70.1661   -9.2994 C.3     1  UNL1        0.1693
     45 O          18.5212   70.0245  -10.3330 O.3     1  UNL1       -0.3794
     46 H          18.8857   69.7436  -11.1835 H       1  UNL1        0.2105
@<TRIPOS>BOND
     1    29    30    1
     2    30    41    1
     3    30    31    1
     4    31    34    1
     5    31    32    1
     6    32    35    1
     7    32    33    1
     8    33    36    1
     9    33    44    1
    10    39    40    1
    11    39    42    2
    12    39    41   am
    13    41    43    1
    14    29    28    1
    15    34    37    1
    16    35    38    1
    17    29    36    1
    18    44    45    1
    19    45    46    1
    20    15     6    1
    21    15    16   ar
    22    16    21    2
    23    16    17   ar
    24    17    23    1
    25    17    18   ar
    26    18    19   ar
    27    19    20   ar
    28    15    20   ar
    29    18    22    2
    30     6     7    1
    31     6    11    1
    32     7     9    1
    33     7     8    1
    34     8    13    1
    35     9    10    1
    36     9    12    1
    37    10     5    1
    38    10    11    1
    39    12    14    1
    40     5     4    1
    41     4     1    1
    42     1     2    1
    43     1    24    1
    44     1     3    2
    45    24    25    1
    46    28    25    1
    47    25    26    1
    48    25    27    2
@<TRIPOS>MOLECULE
UD2
 46 48 0 0 0
SMALL
GASTEIGER

@<TRIPOS>ATOM
      1 P          20.3226   69.9688   -2.7148 P.3     1  UNL1        0.2189
      2 O          21.7492   69.7504   -3.4279 O.3     1  UNL1       -0.4371
      3 O          19.4001   68.8828   -3.1128 O.2     1  UNL1       -0.5170
      4 O          20.5138   69.9517   -1.1158 O.3     1  UNL1       -0.3112
      5 C          21.6326   70.5518   -0.4604 C.3     1  UNL1        0.1811
      6 C          21.4725   73.5622    1.5014 C.3     1  UNL1        0.2383
      7 C          22.8818   73.5914    0.8572 C.3     1  UNL1        0.1895
      8 O          23.3110   74.9352    0.6299 O.3     1  UNL1       -0.3779
      9 C          22.6422   72.8539   -0.4830 C.3     1  UNL1        0.1713
     10 C          21.3560   72.0412   -0.2409 C.3     1  UNL1        0.1764
     11 O          20.9560   72.2686    1.1199 O.3     1  UNL1       -0.3308
     12 O          22.4489   73.7933   -1.5418 O.3     1  UNL1       -0.3794
     13 H          24.1878   75.0058    0.2286 H       1  UNL1        0.2106
     14 H          23.2073   74.3719   -1.6985 H       1  UNL1        0.2105
     15 N          21.5691   73.6702    2.9588 N.ar    1  UNL1       -0.2551
     16 C          21.9334   72.5977    3.6838 C.ar    1  UNL1        0.3323
     17 N          22.0302   72.6682    5.0247 N.ar    1  UNL1       -0.2743
     18 C          21.7630   73.8249    5.6645 C.ar    1  UNL1        0.2626
     19 C          21.3795   74.9621    4.9136 C.ar    1  UNL1        0.0795
     20 C          21.2947   74.8639    3.5703 C.ar    1  UNL1        0.0869
     21 O          22.1774   71.5483    3.1202 O.2     1  UNL1       -0.2464
     22 O          21.8507   73.8902    6.8780 O.2     1  UNL1       -0.2670
     23 H          22.2930   71.8850    5.5323 H       1  UNL1        0.1734
     24 O          19.7084   71.3875   -3.1660 O.3     1  UNL1       -0.2703
     25 P          20.2781   72.6345   -4.0105 P.3     1  UNL1        0.2208
     26 O          19.8866   74.0088   -3.2676 O.3     1  UNL1       -0.4371
     27 O          21.7504   72.5310   -4.1113 O.2     1  UNL1       -0.5170
     28 O          19.6363   72.6205   -5.4872 O.3     1  UNL1       -0.2865
     29 C          19.8792   71.5764   -6.4316 C.3     1  UNL1        0.2611
     30 C          19.6497   72.1058   -7.8493 C.3     1  UNL1        0.1582
     31 C          18.1859   72.5333   -7.9947 C.3     1  UNL1        0.1625
     32 C          17.2823   71.3415   -7.6668 C.3     1  UNL1        0.1686
     33 C          17.6031   70.8415   -6.2557 C.3     1  UNL1        0.1760
     34 O          17.9447   72.9604   -9.3373 O.3     1  UNL1       -0.3801
     35 O          17.5134   70.2932   -8.6096 O.3     1  UNL1       -0.3794
     36 O          18.9860   70.4896   -6.1797 O.3     1  UNL1       -0.3263
     37 H          17.0356   73.2467   -9.5011 H       1  UNL1        0.2105
     38 H          16.9736   69.5041   -8.4615 H       1  UNL1        0.2105
     39 C          20.0638   74.5070   -7.8739 C.2     1  UNL1        0.2231
     40 C          20.9604   75.6920   -8.1194 C.3     1  UNL1        0.0946
     41 N          20.5224   73.2580   -8.0885 N.am    1  UNL1       -0.2994
     42 O          18.9278   74.6763   -7.4828 O.2     1  UNL1       -0.2751
     43 H          21.4302   73.1222   -8.4022 H       1  UNL1        0.1496
     44 C          16.7461   69.6134   -5.9430 C.3     1  UNL1        0.1693
     45 O          16.8360   69.3113   -4.5491 O.3     1  UNL1       -0.3794
     46 H          16.3164   68.5421   -4.2784 H       1  UNL1        0.2105
@<TRIPOS>BOND
     1    29    30    1
     2    30    41    1
     3    30    31    1
     4    31    34    1
     5    31    32    1
     6    32    35    1
     7    32    33    1
     8    33    36    1
     9    33    44    1
    10    39    40    1
    11    39    42    2
    12    39    41   am
    13    41    43    1
    14    29    28    1
    15    34    37    1
    16    35    38    1
    17    29    36    1
    18    44    45    1
    19    45    46    1
    20    15     6    1
    21    15    16   ar
    22    16    21    2
    23    16    17   ar
    24    17    23    1
    25    17    18   ar
    26    18    19   ar
    27    19    20   ar
    28    15    20   ar
    29    18    22    2
    30     6     7    1
    31     6    11    1
    32     7     9    1
    33     7     8    1
    34     8    13    1
    35     9    10    1
    36     9    12    1
    37    10     5    1
    38    10    11    1
    39    12    14    1
    40     5     4    1
    41     4     1    1
    42     1     2    1
    43     1    24    1
    44     1     3    2
    45    24    25    1
    46    28    25    1
    47    25    26    1
    48    25    27    2
@<TRIPOS>MOLECULE
UD2
 46 48 0 0 0
SMALL
GASTEIGER

@<TRIPOS>ATOM
      1 P          19.2876   70.1839   -3.0604 P.3     1  UNL1        0.2189
      2 O          17.6978   69.9935   -2.8939 O.3     1  UNL1       -0.4371
      3 O          19.7904   69.2555   -4.0968 O.2     1  UNL1       -0.5170
      4 O          19.6031   71.7008   -3.4999 O.3     1  UNL1       -0.3112
      5 C          18.8719   72.8225   -3.0012 C.3     1  UNL1        0.1811
      6 C          18.0930   73.4427   -6.4574 C.3     1  UNL1        0.2383
      7 C          16.7506   72.9869   -5.8311 C.3     1  UNL1        0.1895
      8 O          15.6439   73.6027   -6.4928 O.3     1  UNL1       -0.3779
      9 C          16.8795   73.5004   -4.3761 C.3     1  UNL1        0.1713
     10 C          18.3959   73.6830   -4.1742 C.3     1  UNL1        0.1764
     11 O          19.0428   73.2597   -5.3850 O.3     1  UNL1       -0.3308
     12 O          16.2006   74.7482   -4.2254 O.3     1  UNL1       -0.3794
     13 H          14.7816   73.3484   -6.1372 H       1  UNL1        0.2106
     14 H          15.2507   74.7035   -4.3992 H       1  UNL1        0.2105
     15 N          18.4399   72.5997   -7.6037 N.ar    1  UNL1       -0.2551
     16 C          18.3779   73.1077   -8.8475 C.ar    1  UNL1        0.3323
     17 N          18.6909   72.3559   -9.9194 N.ar    1  UNL1       -0.2743
     18 C          19.0758   71.0733   -9.7597 C.ar    1  UNL1        0.2626
     19 C          19.1465   70.5259   -8.4561 C.ar    1  UNL1        0.0795
     20 C          18.8311   71.3039   -7.3993 C.ar    1  UNL1        0.0869
     21 O          18.0327   74.2627   -9.0064 O.2     1  UNL1       -0.2464
     22 O          19.3598   70.3919  -10.7290 O.2     1  UNL1       -0.2670
     23 H          18.6397   72.7375  -10.8092 H       1  UNL1        0.1734
     24 O          20.0157   69.8695   -1.6589 O.3     1  UNL1       -0.2703
     25 P          21.3568   70.4100   -0.9499 P.3     1  UNL1        0.2208
     26 O          21.5991   69.6046    0.4235 O.3     1  UNL1       -0.4371
     27 O          22.5102   70.2027   -1.8527 O.2     1  UNL1       -0.5170
     28 O          21.1996   71.9804   -0.6311 O.3     1  UNL1       -0.2865
     29 C          22.2718   72.7857   -0.1377 C.3     1  UNL1        0.2611
     30 C          21.7111   74.0930    0.4273 C.3     1  UNL1        0.1582
     31 C          21.0238   74.8724   -0.6981 C.3     1  UNL1        0.1625
     32 C          22.0303   75.1123   -1.8268 C.3     1  UNL1        0.1686
     33 C          22.5787   73.7652   -2.3051 C.3     1  UNL1        0.1760
     34 O          20.5615   76.1282   -0.1956 O.3     1  UNL1       -0.3801
     35 O          23.1043   75.9219   -1.3450 O.3     1  UNL1       -0.3794
     36 O          23.1770   73.0783   -1.2041 O.3     1  UNL1       -0.3263
     37 H          20.1143   76.6750   -0.8561 H       1  UNL1        0.2105
     38 H          23.7815   76.1138   -2.0088 H       1  UNL1        0.2105
     39 C          21.0757   73.9512    2.7755 C.2     1  UNL1        0.2231
     40 C          20.0756   73.6435    3.8588 C.3     1  UNL1        0.0946
     41 N          20.7377   73.7932    1.4805 N.am    1  UNL1       -0.2994
     42 O          22.1866   74.3416    3.0683 O.2     1  UNL1       -0.2751
     43 H          19.8500   73.4801    1.2460 H       1  UNL1        0.1496
     44 C          23.6293   73.9996   -3.3922 C.3     1  UNL1        0.1693
     45 O          23.9115   72.7663   -4.0568 O.3     1  UNL1       -0.3794
     46 H          24.5710   72.8398   -4.7602 H       1  UNL1        0.2105
@<TRIPOS>BOND
     1    29    30    1
     2    30    41    1
     3    30    31    1
     4    31    34    1
     5    31    32    1
     6    32    35    1
     7    32    33    1
     8    33    36    1
     9    33    44    1
    10    39    40    1
    11    39    42    2
    12    39    41   am
    13    41    43    1
    14    29    28    1
    15    34    37    1
    16    35    38    1
    17    29    36    1
    18    44    45    1
    19    45    46    1
    20    15     6    1
    21    15    16   ar
    22    16    21    2
    23    16    17   ar
    24    17    23    1
    25    17    18   ar
    26    18    19   ar
    27    19    20   ar
    28    15    20   ar
    29    18    22    2
    30     6     7    1
    31     6    11    1
    32     7     9    1
    33     7     8    1
    34     8    13    1
    35     9    10    1
    36     9    12    1
    37    10     5    1
    38    10    11    1
    39    12    14    1
    40     5     4    1
    41     4     1    1
    42     1     2    1
    43     1    24    1
    44     1     3    2
    45    24    25    1
    46    28    25    1
    47    25    26    1
    48    25    27    2
@<TRIPOS>MOLECULE
UD2
 46 48 0 0 0
SMALL
GASTEIGER

@<TRIPOS>ATOM
      1 P          22.9690   72.3230   -3.5398 P.3     1  UNL1        0.2189
      2 O          24.1517   73.4034   -3.3816 O.3     1  UNL1       -0.4371
      3 O          23.4839   70.9753   -3.2117 O.2     1  UNL1       -0.5170
      4 O          21.7643   72.6958   -2.5380 O.3     1  UNL1       -0.3112
      5 C          21.9227   73.5807   -1.4275 C.3     1  UNL1        0.1811
      6 C          22.7844   73.1779    2.0412 C.3     1  UNL1        0.2383
      7 C          21.2964   72.7525    1.9574 C.3     1  UNL1        0.1895
      8 O          20.9956   71.7538    2.9340 O.3     1  UNL1       -0.3779
      9 C          21.2047   72.1702    0.5256 C.3     1  UNL1        0.1713
     10 C          22.4082   72.7895   -0.2104 C.3     1  UNL1        0.1764
     11 O          23.0680   73.6697    0.7133 O.3     1  UNL1       -0.3308
     12 O          21.3163   70.7464    0.5580 O.3     1  UNL1       -0.3794
     13 H          20.0761   71.4555    2.9217 H       1  UNL1        0.2106
     14 H          20.6160   70.3076    1.0594 H       1  UNL1        0.2105
     15 N          22.9621   74.2399    3.0340 N.ar    1  UNL1       -0.2551
     16 C          22.3549   75.4267    2.8562 C.ar    1  UNL1        0.3323
     17 N          22.5007   76.4207    3.7523 N.ar    1  UNL1       -0.2743
     18 C          23.2621   76.2383    4.8503 C.ar    1  UNL1        0.2626
     19 C          23.9063   74.9937    5.0506 C.ar    1  UNL1        0.0795
     20 C          23.7391   74.0135    4.1381 C.ar    1  UNL1        0.0869
     21 O          21.6651   75.6052    1.8709 O.2     1  UNL1       -0.2464
     22 O          23.3946   77.1370    5.6623 O.2     1  UNL1       -0.2670
     23 H          22.0569   77.2706    3.6081 H       1  UNL1        0.1734
     24 O          22.4283   72.3368   -5.0566 O.3     1  UNL1       -0.2703
     25 P          21.4685   73.3234   -5.8923 P.3     1  UNL1        0.2208
     26 O          21.2736   74.6989   -5.0777 O.3     1  UNL1       -0.4371
     27 O          22.0820   73.6121   -7.2071 O.2     1  UNL1       -0.5170
     28 O          20.0362   72.6208   -6.1106 O.3     1  UNL1       -0.2865
     29 C          19.1034   73.0475   -7.1051 C.3     1  UNL1        0.2611
     30 C          17.6806   72.9388   -6.5515 C.3     1  UNL1        0.1582
     31 C          17.3781   71.4723   -6.2288 C.3     1  UNL1        0.1625
     32 C          17.5748   70.6314   -7.4931 C.3     1  UNL1        0.1686
     33 C          19.0021   70.8290   -8.0105 C.3     1  UNL1        0.1760
     34 O          16.0263   71.3513   -5.7802 O.3     1  UNL1       -0.3801
     35 O          16.6421   71.0466   -8.4927 O.3     1  UNL1       -0.3794
     36 O          19.2280   72.2175   -8.2618 O.3     1  UNL1       -0.3263
     37 H          15.7658   70.4472   -5.5569 H       1  UNL1        0.2105
     38 H          16.7105   70.5556   -9.3235 H       1  UNL1        0.2105
     39 C          16.6933   74.7662   -5.2772 C.2     1  UNL1        0.2231
     40 C          16.5764   75.5923   -4.0232 C.3     1  UNL1        0.0946
     41 N          17.5676   73.7421   -5.3314 N.am    1  UNL1       -0.2994
     42 O          16.0002   75.0226   -6.2396 O.2     1  UNL1       -0.2751
     43 H          18.1226   73.5373   -4.5626 H       1  UNL1        0.1496
     44 C          19.1883   70.0389   -9.3072 C.3     1  UNL1        0.1693
     45 O          18.7619   70.8338  -10.4157 O.3     1  UNL1       -0.3794
     46 H          18.8517   70.3950  -11.2727 H       1  UNL1        0.2105
@<TRIPOS>BOND
     1    29    30    1
     2    30    41    1
     3    30    31    1
     4    31    34    1
     5    31    32    1
     6    32    35    1
     7    32    33    1
     8    33    36    1
     9    33    44    1
    10    39    40    1
    11    39    42    2
    12    39    41   am
    13    41    43    1
    14    29    28    1
    15    34    37    1
    16    35    38    1
    17    29    36    1
    18    44    45    1
    19    45    46    1
    20    15     6    1
    21    15    16   ar
    22    16    21    2
    23    16    17   ar
    24    17    23    1
    25    17    18   ar
    26    18    19   ar
    27    19    20   ar
    28    15    20   ar
    29    18    22    2
    30     6     7    1
    31     6    11    1
    32     7     9    1
    33     7     8    1
    34     8    13    1
    35     9    10    1
    36     9    12    1
    37    10     5    1
    38    10    11    1
    39    12    14    1
    40     5     4    1
    41     4     1    1
    42     1     2    1
    43     1    24    1
    44     1     3    2
    45    24    25    1
    46    28    25    1
    47    25    26    1
    48    25    27    2
@<TRIPOS>MOLECULE
UD2
 46 48 0 0 0
SMALL
GASTEIGER

@<TRIPOS>ATOM
      1 P          19.1299   69.6545   -2.8925 P.3     1  UNL1        0.2189
      2 O          20.1451   69.2363   -4.0698 O.3     1  UNL1       -0.4371
      3 O          18.3018   68.4875   -2.5167 O.2     1  UNL1       -0.5170
      4 O          19.9698   70.1516   -1.6113 O.3     1  UNL1       -0.3112
      5 C          21.2972   70.6714   -1.7063 C.3     1  UNL1        0.1811
      6 C          21.6164   73.4657    0.5357 C.3     1  UNL1        0.2383
      7 C          23.0301   73.2932   -0.0757 C.3     1  UNL1        0.1895
      8 O          23.7049   74.5497   -0.1629 O.3     1  UNL1       -0.3779
      9 C          22.7094   72.7394   -1.4856 C.3     1  UNL1        0.1713
     10 C          21.2886   72.1596   -1.3481 C.3     1  UNL1        0.1764
     11 O          20.8872   72.3306    0.0205 O.3     1  UNL1       -0.3308
     12 O          22.7293   73.7918   -2.4514 O.3     1  UNL1       -0.3794
     13 H          24.5939   74.4937   -0.5386 H       1  UNL1        0.2106
     14 H          23.5856   74.2323   -2.5366 H       1  UNL1        0.2105
     15 N          21.6777   73.4193    1.9983 N.ar    1  UNL1       -0.2551
     16 C          21.7839   72.2333    2.6235 C.ar    1  UNL1        0.3323
     17 N          21.8420   72.1609    3.9665 N.ar    1  UNL1       -0.2743
     18 C          21.7962   73.2853    4.7095 C.ar    1  UNL1        0.2626
     19 C          21.6855   74.5406    4.0644 C.ar    1  UNL1        0.0795
     20 C          21.6334   74.5839    2.7165 C.ar    1  UNL1        0.0869
     21 O          21.8265   71.2112    1.9663 O.2     1  UNL1       -0.2464
     22 O          21.8491   73.2212    5.9250 O.2     1  UNL1       -0.2670
     23 H          21.9173   71.2975    4.4013 H       1  UNL1        0.1734
     24 O          18.1765   70.8473   -3.4040 O.3     1  UNL1       -0.2703
     25 P          17.1396   71.0036   -4.6260 P.3     1  UNL1        0.2208
     26 O          16.7672   69.5468   -5.2029 O.3     1  UNL1       -0.4371
     27 O          15.9103   71.6731   -4.1476 O.2     1  UNL1       -0.5170
     28 O          17.8133   71.8868   -5.7917 O.3     1  UNL1       -0.2865
     29 C          19.2123   71.8580   -6.0803 C.3     1  UNL1        0.2611
     30 C          19.6574   73.2307   -6.5903 C.3     1  UNL1        0.1582
     31 C          18.9196   73.5447   -7.8955 C.3     1  UNL1        0.1625
     32 C          19.1991   72.4306   -8.9081 C.3     1  UNL1        0.1686
     33 C          18.7714   71.0884   -8.3085 C.3     1  UNL1        0.1760
     34 O          19.3833   74.7920   -8.4177 O.3     1  UNL1       -0.3801
     35 O          20.5955   72.3971   -9.2080 O.3     1  UNL1       -0.3794
     36 O          19.4714   70.8719   -7.0817 O.3     1  UNL1       -0.3263
     37 H          18.9571   75.0542   -9.2452 H       1  UNL1        0.2105
     38 H          20.8455   71.7126   -9.8444 H       1  UNL1        0.2105
     39 C          18.1608   74.9056   -5.6455 C.2     1  UNL1        0.2231
     40 C          17.8315   75.9553   -4.6167 C.3     1  UNL1        0.0946
     41 N          19.3379   74.2518   -5.5894 N.am    1  UNL1       -0.2994
     42 O          17.3662   74.6481   -6.5255 O.2     1  UNL1       -0.2751
     43 H          19.9739   74.4581   -4.8866 H       1  UNL1        0.1496
     44 C          19.1023   69.9629   -9.2904 C.3     1  UNL1        0.1693
     45 O          18.9692   70.4437  -10.6296 O.3     1  UNL1       -0.3794
     46 H          19.1643   69.7817  -11.3069 H       1  UNL1        0.2105
@<TRIPOS>BOND
     1    29    30    1
     2    30    41    1
     3    30    31    1
     4    31    34    1
     5    31    32    1
     6    32    35    1
     7    32    33    1
     8    33    36    1
     9    33    44    1
    10    39    40    1
    11    39    42    2
    12    39    41   am
    13    41    43    1
    14    29    28    1
    15    34    37    1
    16    35    38    1
    17    29    36    1
    18    44    45    1
    19    45    46    1
    20    15     6    1
    21    15    16   ar
    22    16    21    2
    23    16    17   ar
    24    17    23    1
    25    17    18   ar
    26    18    19   ar
    27    19    20   ar
    28    15    20   ar
    29    18    22    2
    30     6     7    1
    31     6    11    1
    32     7     9    1
    33     7     8    1
    34     8    13    1
    35     9    10    1
    36     9    12    1
    37    10     5    1
    38    10    11    1
    39    12    14    1
    40     5     4    1
    41     4     1    1
    42     1     2    1
    43     1    24    1
    44     1     3    2
    45    24    25    1
    46    28    25    1
    47    25    26    1
    48    25    27    2
@<TRIPOS>MOLECULE
UD2
 46 48 0 0 0
SMALL
GASTEIGER

@<TRIPOS>ATOM
      1 P          20.9003   70.3762   -2.6490 P.3     1  UNL1        0.2189
      2 O          20.4095   69.1572   -3.5789 O.3     1  UNL1       -0.4371
      3 O          19.7236   71.0562   -2.0644 O.2     1  UNL1       -0.5170
      4 O          21.8337   69.8068   -1.4665 O.3     1  UNL1       -0.3112
      5 C          21.6577   70.1679   -0.0954 C.3     1  UNL1        0.1811
      6 C          21.4616   73.3113    1.6416 C.3     1  UNL1        0.2383
      7 C          22.9000   73.2734    1.0658 C.3     1  UNL1        0.1895
      8 O          23.3645   74.5911    0.7663 O.3     1  UNL1       -0.3779
      9 C          22.7101   72.4469   -0.2297 C.3     1  UNL1        0.1713
     10 C          21.3989   71.6731    0.0061 C.3     1  UNL1        0.1764
     11 O          20.9396   72.0021    1.3269 O.3     1  UNL1       -0.3308
     12 O          22.5844   73.3121   -1.3595 O.3     1  UNL1       -0.3794
     13 H          24.2603   74.6197    0.4039 H       1  UNL1        0.2106
     14 H          23.3600   73.8665   -1.5195 H       1  UNL1        0.2105
     15 N          21.4915   73.5205    3.0909 N.ar    1  UNL1       -0.2551
     16 C          21.9830   72.5592    3.8929 C.ar    1  UNL1        0.3323
     17 N          22.0225   72.7244    5.2283 N.ar    1  UNL1       -0.2743
     18 C          21.5680   73.8655    5.7849 C.ar    1  UNL1        0.2626
     19 C          21.0488   74.8861    4.9524 C.ar    1  UNL1        0.0795
     20 C          21.0252   74.6954    3.6166 C.ar    1  UNL1        0.0869
     21 O          22.3965   71.5252    3.4049 O.2     1  UNL1       -0.2464
     22 O          21.6036   74.0164    6.9934 O.2     1  UNL1       -0.2670
     23 H          22.3791   72.0207    5.7922 H       1  UNL1        0.1734
     24 O          21.7402   71.4246   -3.5371 O.3     1  UNL1       -0.2703
     25 P          21.3538   72.4570   -4.7109 P.3     1  UNL1        0.2208
     26 O          20.8270   73.8337   -4.0622 O.3     1  UNL1       -0.4371
     27 O          22.5471   72.7288   -5.5418 O.2     1  UNL1       -0.5170
     28 O          20.1950   71.8174   -5.6279 O.3     1  UNL1       -0.2865
     29 C          19.1263   72.5874   -6.1813 C.3     1  UNL1        0.2611
     30 C          17.7878   71.9428   -5.8130 C.3     1  UNL1        0.1582
     31 C          17.7191   70.5419   -6.4288 C.3     1  UNL1        0.1625
     32 C          17.9132   70.6516   -7.9436 C.3     1  UNL1        0.1686
     33 C          19.2473   71.3462   -8.2297 C.3     1  UNL1        0.1760
     34 O          16.4427   69.9609   -6.1517 O.3     1  UNL1       -0.3801
     35 O          16.8458   71.4155   -8.5078 O.3     1  UNL1       -0.3794
     36 O          19.2577   72.6307   -7.6037 O.3     1  UNL1       -0.3263
     37 H          16.3296   69.0708   -6.5123 H       1  UNL1        0.2105
     38 H          16.9049   71.5264   -9.4671 H       1  UNL1        0.2105
     39 C          16.4887   72.0471   -3.7541 C.2     1  UNL1        0.2231
     40 C          16.3742   71.9445   -2.2558 C.3     1  UNL1        0.0946
     41 N          17.6773   71.8430   -4.3555 N.am    1  UNL1       -0.2994
     42 O          15.5105   72.3137   -4.4206 O.2     1  UNL1       -0.2751
     43 H          18.4599   71.6308   -3.8230 H       1  UNL1        0.1496
     44 C          19.4212   71.5133   -9.7404 C.3     1  UNL1        0.1693
     45 O          18.7403   70.4558  -10.4190 O.3     1  UNL1       -0.3794
     46 H          18.8082   70.4981  -11.3826 H       1  UNL1        0.2105
@<TRIPOS>BOND
     1    29    30    1
     2    30    41    1
     3    30    31    1
     4    31    34    1
     5    31    32    1
     6    32    35    1
     7    32    33    1
     8    33    36    1
     9    33    44    1
    10    39    40    1
    11    39    42    2
    12    39    41   am
    13    41    43    1
    14    29    28    1
    15    34    37    1
    16    35    38    1
    17    29    36    1
    18    44    45    1
    19    45    46    1
    20    15     6    1
    21    15    16   ar
    22    16    21    2
    23    16    17   ar
    24    17    23    1
    25    17    18   ar
    26    18    19   ar
    27    19    20   ar
    28    15    20   ar
    29    18    22    2
    30     6     7    1
    31     6    11    1
    32     7     9    1
    33     7     8    1
    34     8    13    1
    35     9    10    1
    36     9    12    1
    37    10     5    1
    38    10    11    1
    39    12    14    1
    40     5     4    1
    41     4     1    1
    42     1     2    1
    43     1    24    1
    44     1     3    2
    45    24    25    1
    46    28    25    1
    47    25    26    1
    48    25    27    2
@<TRIPOS>MOLECULE
UD2
 46 48 0 0 0
SMALL
GASTEIGER

@<TRIPOS>ATOM
      1 P          22.4889   75.7027   -5.0011 P.3     1  UNL1        0.2189
      2 O          21.9722   77.1172   -5.5697 O.3     1  UNL1       -0.4371
      3 O          23.9075   75.5089   -5.3737 O.2     1  UNL1       -0.5170
      4 O          22.3482   75.6857   -3.3968 O.3     1  UNL1       -0.3112
      5 C          22.9898   76.6412   -2.5502 C.3     1  UNL1        0.1811
      6 C          22.5707   74.4661    0.2834 C.3     1  UNL1        0.2383
      7 C          24.0357   74.9614    0.3857 C.3     1  UNL1        0.1895
      8 O          24.4555   75.0341    1.7496 O.3     1  UNL1       -0.3779
      9 C          23.9457   76.3746   -0.2406 C.3     1  UNL1        0.1713
     10 C          22.6601   76.3296   -1.0884 C.3     1  UNL1        0.1764
     11 O          22.1230   75.0017   -0.9808 O.3     1  UNL1       -0.3308
     12 O          23.8372   77.3671    0.7811 O.3     1  UNL1       -0.3794
     13 H          25.3658   75.3385    1.8655 H       1  UNL1        0.2106
     14 H          24.5944   77.3994    1.3812 H       1  UNL1        0.2105
     15 N          22.5207   73.0024    0.2708 N.ar    1  UNL1       -0.2551
     16 C          22.3585   72.3312    1.4249 C.ar    1  UNL1        0.3323
     17 N          22.3093   70.9860    1.4430 N.ar    1  UNL1       -0.2743
     18 C          22.4208   70.2873    0.2950 C.ar    1  UNL1        0.2626
     19 C          22.5909   70.9810   -0.9272 C.ar    1  UNL1        0.0795
     20 C          22.6326   72.3299   -0.9163 C.ar    1  UNL1        0.0869
     21 O          22.2564   72.9482    2.4676 O.2     1  UNL1       -0.2464
     22 O          22.3760   69.0698    0.3100 O.2     1  UNL1       -0.2670
     23 H          22.1931   70.5177    2.2841 H       1  UNL1        0.1734
     24 O          21.6015   74.5148   -5.6295 O.3     1  UNL1       -0.2703
     25 P          21.8482   72.9417   -5.8689 P.3     1  UNL1        0.2208
     26 O          22.6901   72.7314   -7.2256 O.3     1  UNL1       -0.4371
     27 O          22.6047   72.3814   -4.7277 O.2     1  UNL1       -0.5170
     28 O          20.4302   72.1893   -5.9946 O.3     1  UNL1       -0.2865
     29 C          19.2281   72.8543   -6.3870 C.3     1  UNL1        0.2611
     30 C          18.0184   72.0614   -5.8863 C.3     1  UNL1        0.1582
     31 C          18.0193   70.6771   -6.5421 C.3     1  UNL1        0.1625
     32 C          18.0139   70.8449   -8.0640 C.3     1  UNL1        0.1686
     33 C          19.2242   71.6849   -8.4807 C.3     1  UNL1        0.1760
     34 O          16.8532   69.9564   -6.1369 O.3     1  UNL1       -0.3801
     35 O          16.8124   71.5043   -8.4675 O.3     1  UNL1       -0.3794
     36 O          19.1789   72.9470   -7.8122 O.3     1  UNL1       -0.3263
     37 H          16.7890   69.0686   -6.5149 H       1  UNL1        0.2105
     38 H          16.7417   71.6449   -9.4221 H       1  UNL1        0.2105
     39 C          18.7328   70.8527   -3.8948 C.2     1  UNL1        0.2231
     40 C          18.8156   70.7004   -2.3986 C.3     1  UNL1        0.0946
     41 N          18.0983   71.9139   -4.4309 N.am    1  UNL1       -0.2994
     42 O          19.2375   70.0196   -4.6183 O.2     1  UNL1       -0.2751
     43 H          17.6938   72.5796   -3.8528 H       1  UNL1        0.1496
     44 C          19.1934   71.9075   -9.9940 C.3     1  UNL1        0.1693
     45 O          18.2599   72.9440  -10.3048 O.3     1  UNL1       -0.3794
     46 H          18.1880   73.1391  -11.2492 H       1  UNL1        0.2105
@<TRIPOS>BOND
     1    29    30    1
     2    30    41    1
     3    30    31    1
     4    31    34    1
     5    31    32    1
     6    32    35    1
     7    32    33    1
     8    33    36    1
     9    33    44    1
    10    39    40    1
    11    39    42    2
    12    39    41   am
    13    41    43    1
    14    29    28    1
    15    34    37    1
    16    35    38    1
    17    29    36    1
    18    44    45    1
    19    45    46    1
    20    15     6    1
    21    15    16   ar
    22    16    21    2
    23    16    17   ar
    24    17    23    1
    25    17    18   ar
    26    18    19   ar
    27    19    20   ar
    28    15    20   ar
    29    18    22    2
    30     6     7    1
    31     6    11    1
    32     7     9    1
    33     7     8    1
    34     8    13    1
    35     9    10    1
    36     9    12    1
    37    10     5    1
    38    10    11    1
    39    12    14    1
    40     5     4    1
    41     4     1    1
    42     1     2    1
    43     1    24    1
    44     1     3    2
    45    24    25    1
    46    28    25    1
    47    25    26    1
    48    25    27    2
@<TRIPOS>MOLECULE
UD2
 46 48 0 0 0
SMALL
GASTEIGER

@<TRIPOS>ATOM
      1 P          21.8764   70.9465   -3.0629 P.3     1  UNL1        0.2189
      2 O          23.4717   70.8192   -3.2367 O.3     1  UNL1       -0.4371
      3 O          21.2970   69.6061   -2.8251 O.2     1  UNL1       -0.5170
      4 O          21.5479   71.9033   -1.8098 O.3     1  UNL1       -0.3112
      5 C          22.4909   72.8335   -1.2741 C.3     1  UNL1        0.1811
      6 C          22.5387   73.4442    2.2701 C.3     1  UNL1        0.2383
      7 C          21.2078   72.6895    2.0226 C.3     1  UNL1        0.1895
      8 O          20.8492   71.9016    3.1594 O.3     1  UNL1       -0.3779
      9 C          21.5649   71.7875    0.8158 C.3     1  UNL1        0.1713
     10 C          22.7908   72.4732    0.1830 C.3     1  UNL1        0.1764
     11 O          23.0505   73.6672    0.9382 O.3     1  UNL1       -0.3308
     12 O          21.9004   70.4715    1.2586 O.3     1  UNL1       -0.3794
     13 H          20.0230   71.4108    3.0533 H       1  UNL1        0.2106
     14 H          21.1824   70.0150    1.7174 H       1  UNL1        0.2105
     15 N          22.2907   74.7185    2.9480 N.ar    1  UNL1       -0.2551
     16 C          21.4762   75.6270    2.3820 C.ar    1  UNL1        0.3323
     17 N          21.2305   76.8065    2.9825 N.ar    1  UNL1       -0.2743
     18 C          21.8006   77.0953    4.1701 C.ar    1  UNL1        0.2626
     19 C          22.6592   76.1478    4.7776 C.ar    1  UNL1        0.0795
     20 C          22.8844   74.9716    4.1552 C.ar    1  UNL1        0.0869
     21 O          20.9552   75.3799    1.3116 O.2     1  UNL1       -0.2464
     22 O          21.5787   78.1623    4.7148 O.2     1  UNL1       -0.2670
     23 H          20.6417   77.4507    2.5601 H       1  UNL1        0.1734
     24 O          21.2392   71.5774   -4.4005 O.3     1  UNL1       -0.2703
     25 P          21.5153   72.9209   -5.2442 P.3     1  UNL1        0.2208
     26 O          21.4526   74.1943   -4.2602 O.3     1  UNL1       -0.4371
     27 O          22.8546   72.8456   -5.8679 O.2     1  UNL1       -0.5170
     28 O          20.3961   73.0733   -6.3918 O.3     1  UNL1       -0.2865
     29 C          20.7164   73.2588   -7.7718 C.3     1  UNL1        0.2611
     30 C          19.8562   74.3854   -8.3493 C.3     1  UNL1        0.1582
     31 C          18.3804   73.9840   -8.2642 C.3     1  UNL1        0.1625
     32 C          18.1787   72.6606   -9.0073 C.3     1  UNL1        0.1686
     33 C          19.1038   71.6002   -8.4042 C.3     1  UNL1        0.1760
     34 O          17.5744   74.9984   -8.8682 O.3     1  UNL1       -0.3801
     35 O          18.4911   72.8368  -10.3903 O.3     1  UNL1       -0.3794
     36 O          20.4580   72.0490   -8.4871 O.3     1  UNL1       -0.3263
     37 H          16.6261   74.8099   -8.8492 H       1  UNL1        0.2105
     38 H          18.3859   72.0362  -10.9231 H       1  UNL1        0.2105
     39 C          19.2786   75.9014   -6.5311 C.2     1  UNL1        0.2231
     40 C          19.5032   77.1623   -5.7385 C.3     1  UNL1        0.0946
     41 N          20.0752   75.6123   -7.5789 N.am    1  UNL1       -0.2994
     42 O          18.3801   75.1452   -6.2264 O.2     1  UNL1       -0.2751
     43 H          20.7931   76.2171   -7.8235 H       1  UNL1        0.1496
     44 C          18.9519   70.2904   -9.1799 C.3     1  UNL1        0.1693
     45 O          20.1177   69.4858   -8.9907 O.3     1  UNL1       -0.3794
     46 H          20.0908   68.6381   -9.4551 H       1  UNL1        0.2105
@<TRIPOS>BOND
     1    29    30    1
     2    30    41    1
     3    30    31    1
     4    31    34    1
     5    31    32    1
     6    32    35    1
     7    32    33    1
     8    33    36    1
     9    33    44    1
    10    39    40    1
    11    39    42    2
    12    39    41   am
    13    41    43    1
    14    29    28    1
    15    34    37    1
    16    35    38    1
    17    29    36    1
    18    44    45    1
    19    45    46    1
    20    15     6    1
    21    15    16   ar
    22    16    21    2
    23    16    17   ar
    24    17    23    1
    25    17    18   ar
    26    18    19   ar
    27    19    20   ar
    28    15    20   ar
    29    18    22    2
    30     6     7    1
    31     6    11    1
    32     7     9    1
    33     7     8    1
    34     8    13    1
    35     9    10    1
    36     9    12    1
    37    10     5    1
    38    10    11    1
    39    12    14    1
    40     5     4    1
    41     4     1    1
    42     1     2    1
    43     1    24    1
    44     1     3    2
    45    24    25    1
    46    28    25    1
    47    25    26    1
    48    25    27    2
