@<TRIPOS>MOLECULE
*****
 43 45 0 0 0
SMALL
GASTEIGER

@<TRIPOS>ATOM
      1 P          22.9493   71.6614   -2.6569 P.3     1  UNL1        0.2189
      2 O          23.7721   72.9661   -3.1465 O.co2   1  UNL1       -0.4371
      3 O          23.4377   70.3575   -3.2165 O.2     1  UNL1       -0.5170
      4 O          21.4074   72.0309   -2.9792 O.3     1  UNL1       -0.3112
      5 C          20.5842   71.0416   -3.5693 C.3     1  UNL1        0.1811
      6 O          18.7067   72.0168   -4.7101 O.3     1  UNL1       -0.3308
      7 O          17.0108   70.8379   -2.5362 O.3     1  UNL1       -0.3794
      8 O          16.6525   69.0808   -4.5905 O.3     1  UNL1       -0.3779
      9 C          18.1836   70.3084   -3.1549 C.3     1  UNL1        0.1713
     10 C          17.8616   69.8093   -4.5476 C.3     1  UNL1        0.1895
     11 C          19.1274   71.4681   -3.4423 C.3     1  UNL1        0.1764
     12 C          17.7923   71.1045   -5.3385 C.3     1  UNL1        0.2383
     13 H          16.3925   70.1154   -2.3429 H       1  UNL1        0.2105
     14 H          16.7478   68.2655   -4.0726 H       1  UNL1        0.2106
     15 O          16.0097   70.4165   -7.4183 O.2     1  UNL1       -0.2464
     16 O          19.3765   70.4605  -10.5657 O.2     1  UNL1       -0.2670
     17 N          18.1763   70.9298   -6.7107 N.ar    1  UNL1       -0.2551
     18 N          17.6884   70.4381   -8.9837 N.ar    1  UNL1       -0.2743
     19 C          17.2029   70.5838   -7.6776 C.ar    1  UNL1        0.3323
     20 C          19.5028   71.1023   -7.0871 C.ar    1  UNL1        0.0869
     21 C          19.9506   70.9600   -8.3361 C.ar    1  UNL1        0.0795
     22 C          18.9981   70.5986   -9.4064 C.ar    1  UNL1        0.2626
     23 H          17.0296   70.1955   -9.6740 H       1  UNL1        0.1734
     24 O          23.0201   71.7713   -1.0457 O.3     1  UNL1       -0.2703
     25 P          22.4442   70.7994    0.1108 P.3     1  UNL1        0.2208
     26 O          23.6406   69.7304    0.3253 O.co2   1  UNL1       -0.4371
     27 O          21.1136   70.1824   -0.2096 O.2     1  UNL1       -0.5170
     28 O          22.4593   71.7013    1.4483 O.3     1  UNL1       -0.2858
     29 O          21.3267   72.5053    3.3665 O.3     1  UNL1       -0.3226
     30 O          21.2587   75.8186    0.8997 O.3     1  UNL1       -0.3794
     31 O          20.7387   73.1555   -0.1829 O.3     1  UNL1       -0.3775
     32 O          23.1012   75.7092    3.1456 O.3     1  UNL1       -0.3792
     33 C          21.7907   74.6123    1.4472 C.3     1  UNL1        0.1718
     34 C          20.8106   73.4642    1.2043 C.3     1  UNL1        0.1968
     35 C          21.9988   74.8258    2.9482 C.3     1  UNL1        0.1723
     36 C          21.2345   72.2114    1.9721 C.3     1  UNL1        0.2706
     37 C          22.2942   73.5100    3.6624 C.3     1  UNL1        0.1830
     38 H          21.1181   75.7067   -0.0537 H       1  UNL1        0.2105
     39 H          20.4705   73.9461   -0.6762 H       1  UNL1        0.2106
     40 H          22.9259   76.5505    2.6958 H       1  UNL1        0.2106
     41 O          21.4937   74.8061    5.4459 O.co2   1  UNL1       -0.5466
     42 O          22.6106   72.8892    5.9723 O.co2   1  UNL1       -0.5466
     43 C          22.1696   73.6703    5.1426 C.2     1  UNL1        0.0799
@<TRIPOS>UNITY_ATOM_ATTR
2 1
charge -1
26 1
charge -1
41 1
charge -1
@<TRIPOS>BOND
     1     1     4    1
     2     1    24    1
     3     1     2    1
     4     1     3    2
     5    25    28    1
     6    25    24    1
     7    25    26    1
     8    25    27    2
     9     6    11    1
    10     6    12    1
    11    29    36    1
    12    29    37    1
    13     7     9    1
    14     7    13    1
    15     8    10    1
    16     8    14    1
    17     4     5    1
    18    28    36    1
    19    30    33    1
    20    30    38    1
    21    31    34    1
    22    31    39    1
    23    32    35    1
    24    32    40    1
    25    41    43   ar
    26    15    19    2
    27    42    43   ar
    28    16    22    2
    29    17    12    1
    30    17    19   ar
    31    17    20   ar
    32    18    19   ar
    33    18    22   ar
    34    18    23    1
    35     9    10    1
    36     9    11    1
    37    10    12    1
    38    11     5    1
    39    33    34    1
    40    33    35    1
    41    34    36    1
    42    35    37    1
    43    37    43    1
    44    20    21   ar
    45    21    22   ar
@<TRIPOS>MOLECULE
*****
 43 45 0 0 0
SMALL
GASTEIGER

@<TRIPOS>ATOM
      1 P          22.8495   71.7522   -2.3741 P.3     1  UNL1        0.2189
      2 O          23.6452   73.1489   -2.5612 O.co2   1  UNL1       -0.4371
      3 O          23.4063   70.5966   -3.1528 O.2     1  UNL1       -0.5170
      4 O          21.3102   72.1365   -2.6913 O.3     1  UNL1       -0.3112
      5 C          20.5515   71.2672   -3.5117 C.3     1  UNL1        0.1811
      6 O          18.6410   72.1398   -4.6806 O.3     1  UNL1       -0.3308
      7 O          16.9851   70.9465   -2.4839 O.3     1  UNL1       -0.3794
      8 O          16.7042   69.1283   -4.4966 O.3     1  UNL1       -0.3779
      9 C          18.1802   70.4494   -3.0865 C.3     1  UNL1        0.1713
     10 C          17.8834   69.9050   -4.4678 C.3     1  UNL1        0.1895
     11 C          19.0784   71.6385   -3.3989 C.3     1  UNL1        0.1764
     12 C          17.7658   71.1773   -5.2896 C.3     1  UNL1        0.2383
     13 H          16.3952   70.2048   -2.2752 H       1  UNL1        0.2105
     14 H          16.8298   68.3299   -3.9592 H       1  UNL1        0.2106
     15 O          16.0154   70.3893   -7.3612 O.2     1  UNL1       -0.2464
     16 O          19.3939   70.4717  -10.4953 O.2     1  UNL1       -0.2670
     17 N          18.1615   70.9854   -6.6562 N.ar    1  UNL1       -0.2551
     18 N          17.6999   70.4301   -8.9200 N.ar    1  UNL1       -0.2743
     19 C          17.2039   70.5884   -7.6192 C.ar    1  UNL1        0.3323
     20 C          19.4837   71.1914   -7.0309 C.ar    1  UNL1        0.0869
     21 C          19.9415   71.0366   -8.2747 C.ar    1  UNL1        0.0795
     22 C          19.0059   70.6226   -9.3408 C.ar    1  UNL1        0.2626
     23 H          17.0523   70.1521   -9.6075 H       1  UNL1        0.1734
     24 O          22.8498   71.5463   -0.7709 O.3     1  UNL1       -0.2703
     25 P          21.9752   70.5684    0.1738 P.3     1  UNL1        0.2208
     26 O          23.1005   69.7235    0.9739 O.co2   1  UNL1       -0.4371
     27 O          20.9793   69.7245   -0.5678 O.2     1  UNL1       -0.5170
     28 O          21.3304   71.5429    1.2861 O.3     1  UNL1       -0.2858
     29 O          21.8621   73.8470    1.1539 O.3     1  UNL1       -0.3226
     30 O          20.2169   73.5793    4.9341 O.3     1  UNL1       -0.3794
     31 O          22.0566   71.5246    3.9709 O.3     1  UNL1       -0.3775
     32 O          18.6812   74.7346    2.7528 O.3     1  UNL1       -0.3792
     33 C          20.3859   73.2349    3.5590 C.3     1  UNL1        0.1718
     34 C          21.8224   72.7686    3.3211 C.3     1  UNL1        0.1968
     35 C          20.0839   74.4782    2.7195 C.3     1  UNL1        0.1723
     36 C          22.1060   72.6111    1.8266 C.3     1  UNL1        0.2706
     37 C          20.5105   74.2867    1.2669 C.3     1  UNL1        0.1830
     38 H          20.4035   72.8043    5.4871 H       1  UNL1        0.2105
     39 H          21.8783   71.6172    4.9196 H       1  UNL1        0.2106
     40 H          18.3968   74.8582    3.6718 H       1  UNL1        0.2106
     41 O          21.0668   75.4497   -0.6925 O.co2   1  UNL1       -0.5466
     42 O          20.0951   76.6469    0.9872 O.co2   1  UNL1       -0.5466
     43 C          20.5205   75.5922    0.5405 C.2     1  UNL1        0.0799
@<TRIPOS>UNITY_ATOM_ATTR
2 1
charge -1
26 1
charge -1
41 1
charge -1
@<TRIPOS>BOND
     1     1     4    1
     2     1    24    1
     3     1     2    1
     4     1     3    2
     5    25    28    1
     6    25    24    1
     7    25    26    1
     8    25    27    2
     9     6    11    1
    10     6    12    1
    11    29    36    1
    12    29    37    1
    13     7     9    1
    14     7    13    1
    15     8    10    1
    16     8    14    1
    17     4     5    1
    18    28    36    1
    19    30    33    1
    20    30    38    1
    21    31    34    1
    22    31    39    1
    23    32    35    1
    24    32    40    1
    25    41    43   ar
    26    15    19    2
    27    42    43   ar
    28    16    22    2
    29    17    12    1
    30    17    19   ar
    31    17    20   ar
    32    18    19   ar
    33    18    22   ar
    34    18    23    1
    35     9    10    1
    36     9    11    1
    37    10    12    1
    38    11     5    1
    39    33    34    1
    40    33    35    1
    41    34    36    1
    42    35    37    1
    43    37    43    1
    44    20    21   ar
    45    21    22   ar
@<TRIPOS>MOLECULE
*****
 43 45 0 0 0
SMALL
GASTEIGER

@<TRIPOS>ATOM
      1 P          23.0036   71.7495   -3.2392 P.3     1  UNL1        0.2189
      2 O          23.7972   72.8787   -4.0841 O.co2   1  UNL1       -0.4371
      3 O          23.6906   70.4177   -3.1602 O.2     1  UNL1       -0.5170
      4 O          21.5253   71.7395   -3.8970 O.3     1  UNL1       -0.3112
      5 C          20.6510   70.6723   -3.5790 C.3     1  UNL1        0.1811
      6 O          18.8575   71.8432   -4.6698 O.3     1  UNL1       -0.3308
      7 O          17.0800   70.7430   -2.5201 O.3     1  UNL1       -0.3794
      8 O          16.5580   69.0928   -4.6273 O.3     1  UNL1       -0.3779
      9 C          18.1986   70.1353   -3.1666 C.3     1  UNL1        0.1713
     10 C          17.8258   69.7126   -4.5718 C.3     1  UNL1        0.1895
     11 C          19.2373   71.2182   -3.4247 C.3     1  UNL1        0.1764
     12 C          17.8637   71.0345   -5.3193 C.3     1  UNL1        0.2383
     13 H          16.4028   70.0704   -2.3448 H       1  UNL1        0.2105
     14 H          16.5857   68.2555   -4.1373 H       1  UNL1        0.2106
     15 O          16.0247   70.4849   -7.3911 O.2     1  UNL1       -0.2464
     16 O          19.3524   70.4356  -10.5798 O.2     1  UNL1       -0.2670
     17 N          18.2224   70.8732   -6.7000 N.ar    1  UNL1       -0.2551
     18 N          17.6839   70.4599   -8.9771 N.ar    1  UNL1       -0.2743
     19 C          17.2216   70.5988   -7.6618 C.ar    1  UNL1        0.3323
     20 C          19.5513   70.9885   -7.0894 C.ar    1  UNL1        0.0869
     21 C          19.9767   70.8536   -8.3470 C.ar    1  UNL1        0.0795
     22 C          18.9949   70.5651   -9.4129 C.ar    1  UNL1        0.2626
     23 H          17.0058   70.2665   -9.6642 H       1  UNL1        0.1734
     24 O          22.7612   72.4679   -1.8116 O.3     1  UNL1       -0.2703
     25 P          22.8096   74.0268   -1.3861 P.3     1  UNL1        0.2208
     26 O          21.6457   74.6938   -2.2920 O.co2   1  UNL1       -0.4371
     27 O          24.1586   74.6665   -1.5434 O.2     1  UNL1       -0.5170
     28 O          22.2245   74.0591    0.1170 O.3     1  UNL1       -0.2858
     29 O          23.5045   74.3583    2.0870 O.3     1  UNL1       -0.3226
     30 O          20.2284   72.2887    3.5194 O.3     1  UNL1       -0.3794
     31 O          21.4694   71.5274    0.9867 O.3     1  UNL1       -0.3775
     32 O          20.4778   75.1437    4.0065 O.3     1  UNL1       -0.3792
     33 C          20.9257   73.1940    2.6638 C.3     1  UNL1        0.1718
     34 C          22.0305   72.4452    1.9180 C.3     1  UNL1        0.1968
     35 C          21.5264   74.2999    3.5345 C.3     1  UNL1        0.1723
     36 C          22.9425   73.4187    1.1701 C.3     1  UNL1        0.2706
     37 C          22.5201   75.1501    2.7482 C.3     1  UNL1        0.1830
     38 H          19.8380   71.5770    2.9879 H       1  UNL1        0.2105
     39 H          20.8893   70.9068    1.4544 H       1  UNL1        0.2106
     40 H          19.8383   74.6148    4.5086 H       1  UNL1        0.2106
     41 O          24.4407   76.4655    3.0353 O.co2   1  UNL1       -0.5466
     42 O          23.0512   76.2480    4.8300 O.co2   1  UNL1       -0.5466
     43 C          23.3353   75.9998    3.6678 C.2     1  UNL1        0.0799
@<TRIPOS>UNITY_ATOM_ATTR
2 1
charge -1
26 1
charge -1
41 1
charge -1
@<TRIPOS>BOND
     1     1     4    1
     2     1    24    1
     3     1     2    1
     4     1     3    2
     5    25    28    1
     6    25    24    1
     7    25    26    1
     8    25    27    2
     9     6    11    1
    10     6    12    1
    11    29    36    1
    12    29    37    1
    13     7     9    1
    14     7    13    1
    15     8    10    1
    16     8    14    1
    17     4     5    1
    18    28    36    1
    19    30    33    1
    20    30    38    1
    21    31    34    1
    22    31    39    1
    23    32    35    1
    24    32    40    1
    25    41    43   ar
    26    15    19    2
    27    42    43   ar
    28    16    22    2
    29    17    12    1
    30    17    19   ar
    31    17    20   ar
    32    18    19   ar
    33    18    22   ar
    34    18    23    1
    35     9    10    1
    36     9    11    1
    37    10    12    1
    38    11     5    1
    39    33    34    1
    40    33    35    1
    41    34    36    1
    42    35    37    1
    43    37    43    1
    44    20    21   ar
    45    21    22   ar
@<TRIPOS>MOLECULE
*****
 43 45 0 0 0
SMALL
GASTEIGER

@<TRIPOS>ATOM
      1 P          21.8134   73.7756   -5.6777 P.3     1  UNL1        0.2189
      2 O          20.7377   74.6594   -4.8527 O.co2   1  UNL1       -0.4371
      3 O          23.0456   74.5165   -6.1075 O.2     1  UNL1       -0.5170
      4 O          20.9407   73.1133   -6.8684 O.3     1  UNL1       -0.3112
      5 C          20.3406   73.9691   -7.8233 C.3     1  UNL1        0.1811
      6 O          19.6091   71.7589   -8.4215 O.3     1  UNL1       -0.3308
      7 O          17.8882   73.0888  -10.4859 O.3     1  UNL1       -0.3794
      8 O          16.1121   72.5468   -8.4890 O.3     1  UNL1       -0.3779
      9 C          18.2280   73.5312   -9.1716 C.3     1  UNL1        0.1713
     10 C          17.4671   72.7306   -8.1360 C.3     1  UNL1        0.1895
     11 C          19.6683   73.1216   -8.8958 C.3     1  UNL1        0.1764
     12 C          18.2467   71.4270   -8.1100 C.3     1  UNL1        0.2383
     13 H          16.9720   73.3392  -10.6849 H       1  UNL1        0.2105
     14 H          15.6592   73.4053   -8.4911 H       1  UNL1        0.2106
     15 O          15.9843   70.0991   -7.0636 O.2     1  UNL1       -0.2464
     16 O          18.1961   69.0131   -3.1685 O.2     1  UNL1       -0.2670
     17 N          18.2038   70.7884   -6.8249 N.ar    1  UNL1       -0.2551
     18 N          17.0877   69.5604   -5.1242 N.ar    1  UNL1       -0.2743
     19 C          17.0174   70.1492   -6.3936 C.ar    1  UNL1        0.3323
     20 C          19.3278   70.7979   -6.0079 C.ar    1  UNL1        0.0869
     21 C          19.3797   70.2321   -4.8004 C.ar    1  UNL1        0.0795
     22 C          18.1822   69.5442   -4.2748 C.ar    1  UNL1        0.2626
     23 H          16.2733   69.1111   -4.8014 H       1  UNL1        0.1734
     24 O          22.0893   72.5256   -4.6907 O.3     1  UNL1       -0.2703
     25 P          23.0801   72.3731   -3.4224 P.3     1  UNL1        0.2208
     26 O          24.2475   73.4505   -3.7335 O.co2   1  UNL1       -0.4371
     27 O          23.5747   70.9745   -3.1920 O.2     1  UNL1       -0.5170
     28 O          22.2612   73.0060   -2.1849 O.3     1  UNL1       -0.2858
     29 O          21.4883   71.1305   -0.9626 O.3     1  UNL1       -0.3226
     30 O          20.2823   74.2607    1.4489 O.3     1  UNL1       -0.3794
     31 O          19.9852   74.4270   -1.4526 O.3     1  UNL1       -0.3775
     32 O          22.5896   72.6542    2.1882 O.3     1  UNL1       -0.3792
     33 C          21.1250   73.5840    0.5162 C.3     1  UNL1        0.1718
     34 C          20.3256   73.2425   -0.7415 C.3     1  UNL1        0.1968
     35 C          21.6387   72.3062    1.1837 C.3     1  UNL1        0.1723
     36 C          21.1242   72.3202   -1.6637 C.3     1  UNL1        0.2706
     37 C          22.3125   71.3822    0.1734 C.3     1  UNL1        0.1830
     38 H          19.9439   75.0762    1.0466 H       1  UNL1        0.2105
     39 H          19.4785   75.0170   -0.8733 H       1  UNL1        0.2106
     40 H          22.1734   73.2424    2.8376 H       1  UNL1        0.2106
     41 O          23.3479   70.0693    1.8183 O.co2   1  UNL1       -0.5466
     42 O          21.9948   68.9956    0.3300 O.co2   1  UNL1       -0.5466
     43 C          22.5118   70.0191    0.7519 C.2     1  UNL1        0.0799
@<TRIPOS>UNITY_ATOM_ATTR
2 1
charge -1
26 1
charge -1
41 1
charge -1
@<TRIPOS>BOND
     1     1     4    1
     2     1    24    1
     3     1     2    1
     4     1     3    2
     5    25    28    1
     6    25    24    1
     7    25    26    1
     8    25    27    2
     9     6    11    1
    10     6    12    1
    11    29    36    1
    12    29    37    1
    13     7     9    1
    14     7    13    1
    15     8    10    1
    16     8    14    1
    17     4     5    1
    18    28    36    1
    19    30    33    1
    20    30    38    1
    21    31    34    1
    22    31    39    1
    23    32    35    1
    24    32    40    1
    25    41    43   ar
    26    15    19    2
    27    42    43   ar
    28    16    22    2
    29    17    12    1
    30    17    19   ar
    31    17    20   ar
    32    18    19   ar
    33    18    22   ar
    34    18    23    1
    35     9    10    1
    36     9    11    1
    37    10    12    1
    38    11     5    1
    39    33    34    1
    40    33    35    1
    41    34    36    1
    42    35    37    1
    43    37    43    1
    44    20    21   ar
    45    21    22   ar
@<TRIPOS>MOLECULE
*****
 43 45 0 0 0
SMALL
GASTEIGER

@<TRIPOS>ATOM
      1 P          21.9953   70.3291   -0.2417 P.3     1  UNL1        0.2189
      2 O          20.8178   69.6716   -1.1362 O.co2   1  UNL1       -0.4371
      3 O          23.0774   69.3784    0.1790 O.2     1  UNL1       -0.5170
      4 O          21.2034   71.0685    0.9600 O.3     1  UNL1       -0.3112
      5 C          21.6446   72.3487    1.3734 C.3     1  UNL1        0.1811
      6 O          23.0052   72.7012    3.3233 O.3     1  UNL1       -0.3308
      7 O          20.4373   73.1456    4.8065 O.3     1  UNL1       -0.3794
      8 O          21.3326   75.6875    4.3902 O.3     1  UNL1       -0.3779
      9 C          20.7821   73.5058    3.4686 C.3     1  UNL1        0.1713
     10 C          21.7257   74.6898    3.4712 C.3     1  UNL1        0.1895
     11 C          21.6590   72.4008    2.8957 C.3     1  UNL1        0.1764
     12 C          23.0470   74.0393    3.8441 C.3     1  UNL1        0.2383
     13 H          19.8769   73.8368    5.1936 H       1  UNL1        0.2105
     14 H          20.4866   76.0710    4.1088 H       1  UNL1        0.2106
     15 O          25.3843   74.7165    5.2776 O.2     1  UNL1       -0.2464
     16 O          27.3091   76.6714    1.5739 O.2     1  UNL1       -0.2670
     17 N          24.1743   74.7253    3.2790 N.ar    1  UNL1       -0.2551
     18 N          26.3403   75.6904    3.4318 N.ar    1  UNL1       -0.2743
     19 C          25.2993   75.0182    4.0856 C.ar    1  UNL1        0.3323
     20 C          24.1593   75.0990    1.9407 C.ar    1  UNL1        0.0869
     21 C          25.1591   75.7393    1.3315 C.ar    1  UNL1        0.0795
     22 C          26.3711   76.0834    2.1036 C.ar    1  UNL1        0.2626
     23 H          27.1334   75.9069    3.9735 H       1  UNL1        0.1734
     24 O          22.5006   71.5622   -1.1566 O.3     1  UNL1       -0.2703
     25 P          22.6780   71.6925   -2.7582 P.3     1  UNL1        0.2208
     26 O          23.6050   70.4194   -3.1325 O.co2   1  UNL1       -0.4371
     27 O          23.2293   73.0134   -3.2112 O.2     1  UNL1       -0.5170
     28 O          21.2263   71.3306   -3.3616 O.3     1  UNL1       -0.2858
     29 O          19.9502   72.3200   -5.0941 O.3     1  UNL1       -0.3226
     30 O          17.0050   71.1507   -2.4433 O.3     1  UNL1       -0.3794
     31 O          19.4737   72.3722   -1.4696 O.3     1  UNL1       -0.3775
     32 O          17.4625   69.6316   -4.8792 O.3     1  UNL1       -0.3792
     33 C          18.2614   71.0659   -3.1159 C.3     1  UNL1        0.1718
     34 C          19.0780   72.3277   -2.8357 C.3     1  UNL1        0.1968
     35 C          17.9870   70.9315   -4.6154 C.3     1  UNL1        0.1723
     36 C          20.3264   72.3784   -3.7177 C.3     1  UNL1        0.2706
     37 C          19.2611   71.1188   -5.4339 C.3     1  UNL1        0.1830
     38 H          17.1543   71.2368   -1.4886 H       1  UNL1        0.2105
     39 H          18.6865   72.3400   -0.9043 H       1  UNL1        0.2106
     40 H          16.6513   69.4995   -4.3642 H       1  UNL1        0.2106
     41 O          18.2274   72.4543   -7.0616 O.co2   1  UNL1       -0.5466
     42 O          19.2692   70.5577   -7.7805 O.co2   1  UNL1       -0.5466
     43 C          18.9390   71.3143   -6.8796 C.2     1  UNL1        0.0799
@<TRIPOS>UNITY_ATOM_ATTR
2 1
charge -1
26 1
charge -1
41 1
charge -1
@<TRIPOS>BOND
     1     1     4    1
     2     1    24    1
     3     1     2    1
     4     1     3    2
     5    25    28    1
     6    25    24    1
     7    25    26    1
     8    25    27    2
     9     6    11    1
    10     6    12    1
    11    29    36    1
    12    29    37    1
    13     7     9    1
    14     7    13    1
    15     8    10    1
    16     8    14    1
    17     4     5    1
    18    28    36    1
    19    30    33    1
    20    30    38    1
    21    31    34    1
    22    31    39    1
    23    32    35    1
    24    32    40    1
    25    41    43   ar
    26    15    19    2
    27    42    43   ar
    28    16    22    2
    29    17    12    1
    30    17    19   ar
    31    17    20   ar
    32    18    19   ar
    33    18    22   ar
    34    18    23    1
    35     9    10    1
    36     9    11    1
    37    10    12    1
    38    11     5    1
    39    33    34    1
    40    33    35    1
    41    34    36    1
    42    35    37    1
    43    37    43    1
    44    20    21   ar
    45    21    22   ar
@<TRIPOS>MOLECULE
*****
 43 45 0 0 0
SMALL
GASTEIGER

@<TRIPOS>ATOM
      1 P          22.1454   71.5110   -2.8311 P.3     1  UNL1        0.2189
      2 O          23.5043   70.7216   -3.2172 O.co2   1  UNL1       -0.4371
      3 O          20.8757   70.8262   -3.2444 O.2     1  UNL1       -0.5170
      4 O          22.3725   72.9944   -3.4359 O.3     1  UNL1       -0.3112
      5 C          21.4788   73.4640   -4.4286 C.3     1  UNL1        0.1811
      6 O          21.5641   72.1162   -6.4170 O.3     1  UNL1       -0.3308
      7 O          22.8610   74.4759   -7.7367 O.3     1  UNL1       -0.3794
      8 O          20.2850   74.6429   -8.6156 O.3     1  UNL1       -0.3779
      9 C          21.8306   74.4464   -6.7488 C.3     1  UNL1        0.1713
     10 C          20.5194   74.0163   -7.3718 C.3     1  UNL1        0.1895
     11 C          22.1245   73.2943   -5.7977 C.3     1  UNL1        0.1764
     12 C          20.7088   72.5145   -7.5001 C.3     1  UNL1        0.2383
     13 H          22.6948   75.2041   -8.3561 H       1  UNL1        0.2105
     14 H          20.1708   75.5972   -8.4804 H       1  UNL1        0.2106
     15 O          18.9949   71.9949   -9.6839 O.2     1  UNL1       -0.2464
     16 O          15.9801   69.7477   -7.0184 O.2     1  UNL1       -0.2670
     17 N          19.4697   71.7958   -7.4050 N.ar    1  UNL1       -0.2551
     18 N          17.4945   70.8770   -8.3541 N.ar    1  UNL1       -0.2743
     19 C          18.6829   71.5893   -8.5627 C.ar    1  UNL1        0.3323
     20 C          19.0462   71.3030   -6.1767 C.ar    1  UNL1        0.0869
     21 C          17.9110   70.6258   -5.9935 C.ar    1  UNL1        0.0795
     22 C          17.0308   70.3677   -7.1519 C.ar    1  UNL1        0.2626
     23 H          16.9290   70.7226   -9.1451 H       1  UNL1        0.1734
     24 O          22.2990   71.7405   -1.2385 O.3     1  UNL1       -0.2703
     25 P          21.9426   70.7793    0.0116 P.3     1  UNL1        0.2208
     26 O          23.3967   70.4039    0.6159 O.co2   1  UNL1       -0.4371
     27 O          21.0964   69.5920   -0.3461 O.2     1  UNL1       -0.5170
     28 O          21.2868   71.7624    1.1098 O.3     1  UNL1       -0.2858
     29 O          21.8688   74.0561    1.2043 O.3     1  UNL1       -0.3226
     30 O          20.2661   73.4400    4.9619 O.3     1  UNL1       -0.3794
     31 O          22.0465   71.4554    3.7677 O.3     1  UNL1       -0.3775
     32 O          18.7294   74.8436    2.9323 O.3     1  UNL1       -0.3792
     33 C          20.4098   73.2338    3.5566 C.3     1  UNL1        0.1718
     34 C          21.8322   72.7638    3.2512 C.3     1  UNL1        0.1968
     35 C          20.1254   74.5623    2.8522 C.3     1  UNL1        0.1723
     36 C          22.0932   72.7533    1.7443 C.3     1  UNL1        0.2706
     37 C          20.5290   74.5106    1.3815 C.3     1  UNL1        0.1830
     38 H          20.4422   72.6089    5.4305 H       1  UNL1        0.2105
     39 H          21.8824   71.4547    4.7235 H       1  UNL1        0.2106
     40 H          18.4596   74.8791    3.8633 H       1  UNL1        0.2106
     41 O          19.3050   76.3045    0.4952 O.co2   1  UNL1       -0.5466
     42 O          21.5703   76.5422    0.6004 O.co2   1  UNL1       -0.5466
     43 C          20.5594   75.8828    0.7912 C.2     1  UNL1        0.0799
@<TRIPOS>UNITY_ATOM_ATTR
2 1
charge -1
26 1
charge -1
41 1
charge -1
@<TRIPOS>BOND
     1     1     4    1
     2     1    24    1
     3     1     2    1
     4     1     3    2
     5    25    28    1
     6    25    24    1
     7    25    26    1
     8    25    27    2
     9     6    11    1
    10     6    12    1
    11    29    36    1
    12    29    37    1
    13     7     9    1
    14     7    13    1
    15     8    10    1
    16     8    14    1
    17     4     5    1
    18    28    36    1
    19    30    33    1
    20    30    38    1
    21    31    34    1
    22    31    39    1
    23    32    35    1
    24    32    40    1
    25    41    43   ar
    26    15    19    2
    27    42    43   ar
    28    16    22    2
    29    17    12    1
    30    17    19   ar
    31    17    20   ar
    32    18    19   ar
    33    18    22   ar
    34    18    23    1
    35     9    10    1
    36     9    11    1
    37    10    12    1
    38    11     5    1
    39    33    34    1
    40    33    35    1
    41    34    36    1
    42    35    37    1
    43    37    43    1
    44    20    21   ar
    45    21    22   ar
@<TRIPOS>MOLECULE
*****
 43 45 0 0 0
SMALL
GASTEIGER

@<TRIPOS>ATOM
      1 P          22.6103   72.9679   -4.0071 P.3     1  UNL1        0.2189
      2 O          22.8832   74.0504   -5.1787 O.co2   1  UNL1       -0.4371
      3 O          23.7920   72.1182   -3.6418 O.2     1  UNL1       -0.5170
      4 O          21.2995   72.1672   -4.5156 O.3     1  UNL1       -0.3112
      5 C          20.6673   71.2688   -3.6224 C.3     1  UNL1        0.1811
      6 O          18.7387   72.1575   -4.7487 O.3     1  UNL1       -0.3308
      7 O          17.1265   71.0175   -2.4920 O.3     1  UNL1       -0.3794
      8 O          16.7611   69.1797   -4.4731 O.3     1  UNL1       -0.3779
      9 C          18.2963   70.4942   -3.1213 C.3     1  UNL1        0.1713
     10 C          17.9526   69.9378   -4.4868 C.3     1  UNL1        0.1895
     11 C          19.2039   71.6648   -3.4735 C.3     1  UNL1        0.1764
     12 C          17.8319   71.2017   -5.3211 C.3     1  UNL1        0.2383
     13 H          16.5311   70.2879   -2.2577 H       1  UNL1        0.2105
     14 H          16.8892   68.3860   -3.9294 H       1  UNL1        0.2106
     15 O          16.0200   70.3791   -7.3252 O.2     1  UNL1       -0.2464
     16 O          19.3022   70.4089  -10.5610 O.2     1  UNL1       -0.2670
     17 N          18.1862   70.9869   -6.6955 N.ar    1  UNL1       -0.2551
     18 N          17.6566   70.3938   -8.9347 N.ar    1  UNL1       -0.2743
     19 C          17.2001   70.5739   -7.6224 C.ar    1  UNL1        0.3323
     20 C          19.4964   71.1866   -7.1134 C.ar    1  UNL1        0.0869
     21 C          19.9164   71.0110   -8.3678 C.ar    1  UNL1        0.0795
     22 C          18.9491   70.5792   -9.3980 C.ar    1  UNL1        0.2626
     23 H          16.9887   70.1044   -9.5976 H       1  UNL1        0.1734
     24 O          22.0355   73.8767   -2.8002 O.3     1  UNL1       -0.2703
     25 P          22.7908   74.8412   -1.7451 P.3     1  UNL1        0.2208
     26 O          22.0432   76.2632   -1.9432 O.co2   1  UNL1       -0.4371
     27 O          24.2810   74.8965   -1.9189 O.2     1  UNL1       -0.5170
     28 O          22.3044   74.3237   -0.2967 O.3     1  UNL1       -0.2858
     29 O          21.3933   72.1458   -0.1063 O.3     1  UNL1       -0.3226
     30 O          20.1849   73.8761    3.4453 O.3     1  UNL1       -0.3794
     31 O          20.0505   75.3799    0.9444 O.3     1  UNL1       -0.3775
     32 O          22.3838   71.9747    3.4225 O.3     1  UNL1       -0.3792
     33 C          21.0489   73.6569    2.3302 C.3     1  UNL1        0.1718
     34 C          20.3051   73.9829    1.0348 C.3     1  UNL1        0.1968
     35 C          21.4750   72.1872    2.3438 C.3     1  UNL1        0.1723
     36 C          21.1148   73.5442   -0.1862 C.3     1  UNL1        0.2706
     37 C          22.1648   71.7951    1.0404 C.3     1  UNL1        0.1830
     38 H          19.9011   74.8038    3.4573 H       1  UNL1        0.2105
     39 H          19.5372   75.6652    1.7161 H       1  UNL1        0.2106
     40 H          21.9570   72.2206    4.2581 H       1  UNL1        0.2106
     41 O          23.3688   69.8605    1.5965 O.co2   1  UNL1       -0.5466
     42 O          21.5002   69.5911    0.3178 O.co2   1  UNL1       -0.5466
     43 C          22.2787   70.3097    0.9265 C.2     1  UNL1        0.0799
@<TRIPOS>UNITY_ATOM_ATTR
2 1
charge -1
26 1
charge -1
41 1
charge -1
@<TRIPOS>BOND
     1     1     4    1
     2     1    24    1
     3     1     2    1
     4     1     3    2
     5    25    28    1
     6    25    24    1
     7    25    26    1
     8    25    27    2
     9     6    11    1
    10     6    12    1
    11    29    36    1
    12    29    37    1
    13     7     9    1
    14     7    13    1
    15     8    10    1
    16     8    14    1
    17     4     5    1
    18    28    36    1
    19    30    33    1
    20    30    38    1
    21    31    34    1
    22    31    39    1
    23    32    35    1
    24    32    40    1
    25    41    43   ar
    26    15    19    2
    27    42    43   ar
    28    16    22    2
    29    17    12    1
    30    17    19   ar
    31    17    20   ar
    32    18    19   ar
    33    18    22   ar
    34    18    23    1
    35     9    10    1
    36     9    11    1
    37    10    12    1
    38    11     5    1
    39    33    34    1
    40    33    35    1
    41    34    36    1
    42    35    37    1
    43    37    43    1
    44    20    21   ar
    45    21    22   ar
@<TRIPOS>MOLECULE
*****
 43 45 0 0 0
SMALL
GASTEIGER

@<TRIPOS>ATOM
      1 P          22.9712   71.9793   -2.8763 P.3     1  UNL1        0.2189
      2 O          23.5588   70.5034   -3.1851 O.co2   1  UNL1       -0.4371
      3 O          22.8688   72.3287   -1.4205 O.2     1  UNL1       -0.5170
      4 O          21.5851   72.0278   -3.7096 O.3     1  UNL1       -0.3112
      5 C          20.7261   70.9035   -3.6590 C.3     1  UNL1        0.1811
      6 O          18.8571   71.9497   -4.7498 O.3     1  UNL1       -0.3308
      7 O          17.1757   70.8306   -2.5335 O.3     1  UNL1       -0.3794
      8 O          16.6992   69.0916   -4.5792 O.3     1  UNL1       -0.3779
      9 C          18.3115   70.2591   -3.1829 C.3     1  UNL1        0.1713
     10 C          17.9352   69.7747   -4.5671 C.3     1  UNL1        0.1895
     11 C          19.2899   71.3835   -3.4939 C.3     1  UNL1        0.1764
     12 C          17.8935   71.0730   -5.3550 C.3     1  UNL1        0.2383
     13 H          16.5362   70.1312   -2.3248 H       1  UNL1        0.2105
     14 H          16.7775   68.2724   -4.0646 H       1  UNL1        0.2106
     15 O          16.0319   70.4641   -7.3897 O.2     1  UNL1       -0.2464
     16 O          19.3165   70.3794  -10.6220 O.2     1  UNL1       -0.2670
     17 N          18.2350   70.8865   -6.7369 N.ar    1  UNL1       -0.2551
     18 N          17.6697   70.4215   -8.9975 N.ar    1  UNL1       -0.2743
     19 C          17.2239   70.5833   -7.6791 C.ar    1  UNL1        0.3323
     20 C          19.5574   71.0058   -7.1467 C.ar    1  UNL1        0.0869
     21 C          19.9670   70.8489   -8.4070 C.ar    1  UNL1        0.0795
     22 C          18.9737   70.5296   -9.4532 C.ar    1  UNL1        0.2626
     23 H          16.9842   70.2079   -9.6711 H       1  UNL1        0.1734
     24 O          23.9445   72.9441   -3.7334 O.3     1  UNL1       -0.2703
     25 P          24.3825   74.4835   -3.5050 P.3     1  UNL1        0.2208
     26 O          24.3122   74.6533   -1.8968 O.co2   1  UNL1       -0.4371
     27 O          23.5571   75.4783   -4.2686 O.2     1  UNL1       -0.5170
     28 O          25.9581   74.5161   -3.8495 O.3     1  UNL1       -0.2858
     29 O          26.9041   76.2616   -2.5582 O.3     1  UNL1       -0.3226
     30 O          30.2246   74.7629   -4.5067 O.3     1  UNL1       -0.3794
     31 O          27.6999   75.1091   -5.9353 O.3     1  UNL1       -0.3775
     32 O          29.7794   74.1501   -1.7001 O.3     1  UNL1       -0.3792
     33 C          28.9388   74.7037   -3.8891 C.3     1  UNL1        0.1718
     34 C          27.9699   75.6211   -4.6355 C.3     1  UNL1        0.1968
     35 C          29.0908   75.1593   -2.4361 C.3     1  UNL1        0.1723
     36 C          26.6522   75.7621   -3.8721 C.3     1  UNL1        0.2706
     37 C          27.7328   75.3987   -1.7825 C.3     1  UNL1        0.1830
     38 H          30.1528   74.4778   -5.4313 H       1  UNL1        0.2105
     39 H          28.5317   75.0168   -6.4252 H       1  UNL1        0.2106
     40 H          30.6454   73.9880   -2.1059 H       1  UNL1        0.2106
     41 O          27.4780   77.4318   -0.6409 O.co2   1  UNL1       -0.5466
     42 O          28.3181   75.6729    0.5421 O.co2   1  UNL1       -0.5466
     43 C          27.8867   76.1467   -0.4983 C.2     1  UNL1        0.0799
@<TRIPOS>UNITY_ATOM_ATTR
2 1
charge -1
26 1
charge -1
41 1
charge -1
@<TRIPOS>BOND
     1     1     4    1
     2     1    24    1
     3     1     2    1
     4     1     3    2
     5    25    28    1
     6    25    24    1
     7    25    26    1
     8    25    27    2
     9     6    11    1
    10     6    12    1
    11    29    36    1
    12    29    37    1
    13     7     9    1
    14     7    13    1
    15     8    10    1
    16     8    14    1
    17     4     5    1
    18    28    36    1
    19    30    33    1
    20    30    38    1
    21    31    34    1
    22    31    39    1
    23    32    35    1
    24    32    40    1
    25    41    43   ar
    26    15    19    2
    27    42    43   ar
    28    16    22    2
    29    17    12    1
    30    17    19   ar
    31    17    20   ar
    32    18    19   ar
    33    18    22   ar
    34    18    23    1
    35     9    10    1
    36     9    11    1
    37    10    12    1
    38    11     5    1
    39    33    34    1
    40    33    35    1
    41    34    36    1
    42    35    37    1
    43    37    43    1
    44    20    21   ar
    45    21    22   ar
@<TRIPOS>MOLECULE
*****
 43 45 0 0 0
SMALL
GASTEIGER

@<TRIPOS>ATOM
      1 P          22.6350   72.7001   -3.3437 P.3     1  UNL1        0.2189
      2 O          23.9804   72.6195   -4.2395 O.co2   1  UNL1       -0.4371
      3 O          22.7852   72.2190   -1.9303 O.2     1  UNL1       -0.5170
      4 O          21.5279   71.9271   -4.2352 O.3     1  UNL1       -0.3112
      5 C          20.7719   70.8951   -3.6285 C.3     1  UNL1        0.1811
      6 O          18.8901   71.9401   -4.6984 O.3     1  UNL1       -0.3308
      7 O          17.2329   70.8132   -2.4679 O.3     1  UNL1       -0.3794
      8 O          16.7393   69.0777   -4.5125 O.3     1  UNL1       -0.3779
      9 C          18.3633   70.2452   -3.1298 C.3     1  UNL1        0.1713
     10 C          17.9741   69.7631   -4.5113 C.3     1  UNL1        0.1895
     11 C          19.3365   71.3720   -3.4481 C.3     1  UNL1        0.1764
     12 C          17.9222   71.0629   -5.2959 C.3     1  UNL1        0.2383
     13 H          16.5968   70.1122   -2.2544 H       1  UNL1        0.2105
     14 H          16.8243   68.2575   -4.0005 H       1  UNL1        0.2106
     15 O          16.0357   70.4983   -7.3205 O.2     1  UNL1       -0.2464
     16 O          19.2944   70.3810  -10.5779 O.2     1  UNL1       -0.2670
     17 N          18.2503   70.8800   -6.6815 N.ar    1  UNL1       -0.2551
     18 N          17.6607   70.4394   -8.9408 N.ar    1  UNL1       -0.2743
     19 C          17.2274   70.5998   -7.6181 C.ar    1  UNL1        0.3323
     20 C          19.5714   70.9803   -7.1005 C.ar    1  UNL1        0.0869
     21 C          19.9690   70.8250   -8.3648 C.ar    1  UNL1        0.0795
     22 C          18.9628   70.5291   -9.4056 C.ar    1  UNL1        0.2626
     23 H          16.9667   70.2416   -9.6106 H       1  UNL1        0.1734
     24 O          22.1975   74.2498   -3.4847 O.3     1  UNL1       -0.2703
     25 P          22.9120   75.4903   -4.2358 P.3     1  UNL1        0.2208
     26 O          24.4472   75.3933   -3.7318 O.co2   1  UNL1       -0.4371
     27 O          22.2614   76.8198   -3.9844 O.2     1  UNL1       -0.5170
     28 O          22.9647   75.0536   -5.7879 O.3     1  UNL1       -0.2858
     29 O          21.0414   75.7957   -6.9537 O.3     1  UNL1       -0.3226
     30 O          22.9669   73.5602   -9.8456 O.3     1  UNL1       -0.3794
     31 O          22.8134   72.6007   -7.0905 O.3     1  UNL1       -0.3775
     32 O          23.0442   76.4641   -9.9544 O.3     1  UNL1       -0.3792
     33 C          22.8748   74.4119   -8.7036 C.3     1  UNL1        0.1718
     34 C          22.0810   73.7078   -7.6028 C.3     1  UNL1        0.1968
     35 C          22.1664   75.6996   -9.1300 C.3     1  UNL1        0.1723
     36 C          21.7646   74.6692   -6.4563 C.3     1  UNL1        0.2706
     37 C          21.7721   76.5447   -7.9222 C.3     1  UNL1        0.1830
     38 H          23.4137   72.7351   -9.5986 H       1  UNL1        0.2105
     39 H          23.0178   71.9867   -7.8128 H       1  UNL1        0.2106
     40 H          23.3028   75.9375  -10.7269 H       1  UNL1        0.2106
     41 O          21.1022   78.7803   -7.6876 O.co2   1  UNL1       -0.5466
     42 O          19.8794   77.4705   -9.0977 O.co2   1  UNL1       -0.5466
     43 C          20.8073   77.6154   -8.3161 C.2     1  UNL1        0.0799
@<TRIPOS>UNITY_ATOM_ATTR
2 1
charge -1
26 1
charge -1
41 1
charge -1
@<TRIPOS>BOND
     1     1     4    1
     2     1    24    1
     3     1     2    1
     4     1     3    2
     5    25    28    1
     6    25    24    1
     7    25    26    1
     8    25    27    2
     9     6    11    1
    10     6    12    1
    11    29    36    1
    12    29    37    1
    13     7     9    1
    14     7    13    1
    15     8    10    1
    16     8    14    1
    17     4     5    1
    18    28    36    1
    19    30    33    1
    20    30    38    1
    21    31    34    1
    22    31    39    1
    23    32    35    1
    24    32    40    1
    25    41    43   ar
    26    15    19    2
    27    42    43   ar
    28    16    22    2
    29    17    12    1
    30    17    19   ar
    31    17    20   ar
    32    18    19   ar
    33    18    22   ar
    34    18    23    1
    35     9    10    1
    36     9    11    1
    37    10    12    1
    38    11     5    1
    39    33    34    1
    40    33    35    1
    41    34    36    1
    42    35    37    1
    43    37    43    1
    44    20    21   ar
    45    21    22   ar
@<TRIPOS>MOLECULE
*****
 43 45 0 0 0
SMALL
GASTEIGER

@<TRIPOS>ATOM
      1 P          22.7824   72.1216   -3.1810 P.3     1  UNL1        0.2189
      2 O          23.4473   70.6466   -3.2135 O.co2   1  UNL1       -0.4371
      3 O          23.7614   73.2563   -3.1045 O.2     1  UNL1       -0.5170
      4 O          21.7088   72.0373   -1.9734 O.3     1  UNL1       -0.3112
      5 C          22.0944   72.5007   -0.6924 C.3     1  UNL1        0.1811
      6 O          21.1503   72.8211    1.4948 O.3     1  UNL1       -0.3308
      7 O          19.0298   74.4495    0.1373 O.3     1  UNL1       -0.3794
      8 O          20.6812   76.3602    1.1658 O.3     1  UNL1       -0.3779
      9 C          20.4207   74.3433   -0.1669 C.3     1  UNL1        0.1713
     10 C          21.2403   75.1009    0.8561 C.3     1  UNL1        0.1895
     11 C          20.8481   72.9038    0.0852 C.3     1  UNL1        0.1764
     12 C          21.2267   74.1481    2.0393 C.3     1  UNL1        0.2383
     13 H          18.7336   75.3608   -0.0162 H       1  UNL1        0.2105
     14 H          20.7134   76.9301    0.3808 H       1  UNL1        0.2106
     15 O          23.7674   74.8784    1.0453 O.2     1  UNL1       -0.2464
     16 O          25.7013   74.5282    5.2144 O.2     1  UNL1       -0.2670
     17 N          22.4114   74.2555    2.8430 N.ar    1  UNL1       -0.2551
     18 N          24.7284   74.7023    3.1225 N.ar    1  UNL1       -0.2743
     19 C          23.6382   74.6296    2.2455 C.ar    1  UNL1        0.3323
     20 C          22.3507   73.9936    4.2063 C.ar    1  UNL1        0.0869
     21 C          23.3984   74.0672    5.0296 C.ar    1  UNL1        0.0795
     22 C          24.7174   74.4505    4.4849 C.ar    1  UNL1        0.2626
     23 H          25.5937   74.9588    2.7292 H       1  UNL1        0.1734
     24 O          21.8469   72.1271   -4.4992 O.3     1  UNL1       -0.2703
     25 P          21.5788   73.2749   -5.6057 P.3     1  UNL1        0.2208
     26 O          22.8559   73.1436   -6.5917 O.co2   1  UNL1       -0.4371
     27 O          21.3787   74.6480   -5.0326 O.2     1  UNL1       -0.5170
     28 O          20.3357   72.7240   -6.4739 O.3     1  UNL1       -0.2858
     29 O          19.3469   70.5726   -6.4240 O.3     1  UNL1       -0.3226
     30 O          18.6723   71.7173  -10.3359 O.3     1  UNL1       -0.3794
     31 O          21.2453   72.2510   -9.0594 O.3     1  UNL1       -0.3775
     32 O          16.4997   71.7690   -8.4050 O.3     1  UNL1       -0.3792
     33 C          18.8463   71.9125   -8.9324 C.3     1  UNL1        0.1718
     34 C          20.2304   71.4158   -8.5143 C.3     1  UNL1        0.1968
     35 C          17.7554   71.1223   -8.2062 C.3     1  UNL1        0.1723
     36 C          20.3672   71.3951   -6.9913 C.3     1  UNL1        0.2706
     37 C          18.0304   71.0412   -6.7074 C.3     1  UNL1        0.1830
     38 H          19.3547   72.2103  -10.8181 H       1  UNL1        0.2105
     39 H          21.1643   72.2690  -10.0256 H       1  UNL1        0.2106
     40 H          16.3128   71.8272   -9.3550 H       1  UNL1        0.2106
     41 O          17.6775   69.6272   -4.8696 O.co2   1  UNL1       -0.5466
     42 O          16.1260   69.5693   -6.5395 O.co2   1  UNL1       -0.5466
     43 C          17.1615   70.0102   -6.0637 C.2     1  UNL1        0.0799
@<TRIPOS>UNITY_ATOM_ATTR
2 1
charge -1
26 1
charge -1
41 1
charge -1
@<TRIPOS>BOND
     1     1     4    1
     2     1    24    1
     3     1     2    1
     4     1     3    2
     5    25    28    1
     6    25    24    1
     7    25    26    1
     8    25    27    2
     9     6    11    1
    10     6    12    1
    11    29    36    1
    12    29    37    1
    13     7     9    1
    14     7    13    1
    15     8    10    1
    16     8    14    1
    17     4     5    1
    18    28    36    1
    19    30    33    1
    20    30    38    1
    21    31    34    1
    22    31    39    1
    23    32    35    1
    24    32    40    1
    25    41    43   ar
    26    15    19    2
    27    42    43   ar
    28    16    22    2
    29    17    12    1
    30    17    19   ar
    31    17    20   ar
    32    18    19   ar
    33    18    22   ar
    34    18    23    1
    35     9    10    1
    36     9    11    1
    37    10    12    1
    38    11     5    1
    39    33    34    1
    40    33    35    1
    41    34    36    1
    42    35    37    1
    43    37    43    1
    44    20    21   ar
    45    21    22   ar
@<TRIPOS>MOLECULE
*****
 43 45 0 0 0
SMALL
GASTEIGER

@<TRIPOS>ATOM
      1 P          22.2091   73.3409   -5.2849 P.3     1  UNL1        0.2189
      2 O          22.3440   74.8867   -5.7446 O.co2   1  UNL1       -0.4371
      3 O          23.4705   72.7255   -4.7537 O.2     1  UNL1       -0.5170
      4 O          21.5577   72.6082   -6.5720 O.3     1  UNL1       -0.3112
      5 C          20.7620   73.3759   -7.4562 C.3     1  UNL1        0.1811
      6 O          19.9598   71.1452   -7.8540 O.3     1  UNL1       -0.3308
      7 O          18.4021   72.3119  -10.1352 O.3     1  UNL1       -0.3794
      8 O          16.5096   72.0612   -8.1880 O.3     1  UNL1       -0.3779
      9 C          18.6985   72.8800   -8.8593 C.3     1  UNL1        0.1713
     10 C          17.8533   72.2275   -7.7859 C.3     1  UNL1        0.1895
     11 C          20.1038   72.4450   -8.4665 C.3     1  UNL1        0.1764
     12 C          18.5704   70.9040   -7.5809 C.3     1  UNL1        0.2383
     13 H          17.5089   72.5759  -10.4074 H       1  UNL1        0.2105
     14 H          16.0971   72.9319   -8.3050 H       1  UNL1        0.2106
     15 O          16.2357   69.6930   -6.5517 O.2     1  UNL1       -0.2464
     16 O          18.1719   69.0484   -2.4190 O.2     1  UNL1       -0.2670
     17 N          18.4370   70.4106   -6.2394 N.ar    1  UNL1       -0.2551
     18 N          17.2019   69.3740   -4.4940 N.ar    1  UNL1       -0.2743
     19 C          17.2210   69.8195   -5.8223 C.ar    1  UNL1        0.3323
     20 C          19.5028   70.5130   -5.3536 C.ar    1  UNL1        0.0869
     21 C          19.4696   70.0837   -4.0905 C.ar    1  UNL1        0.0795
     22 C          18.2359   69.4545   -3.5753 C.ar    1  UNL1        0.2626
     23 H          16.3652   68.9607   -4.1802 H       1  UNL1        0.1734
     24 O          20.9841   73.3813   -4.2311 O.3     1  UNL1       -0.2703
     25 P          20.8896   73.9893   -2.7361 P.3     1  UNL1        0.2208
     26 O          19.3096   74.2943   -2.5600 O.co2   1  UNL1       -0.4371
     27 O          21.7787   75.1750   -2.4961 O.2     1  UNL1       -0.5170
     28 O          21.1725   72.7328   -1.7646 O.3     1  UNL1       -0.2858
     29 O          22.9407   73.2669   -0.2823 O.3     1  UNL1       -0.3226
     30 O          22.1177   69.3562    0.7652 O.3     1  UNL1       -0.3794
     31 O          22.1793   70.1552   -2.0441 O.3     1  UNL1       -0.3775
     32 O          21.2358   71.5399    2.4696 O.3     1  UNL1       -0.3792
     33 C          21.8165   70.6713    0.2986 C.3     1  UNL1        0.1718
     34 C          22.6280   70.9649   -0.9635 C.3     1  UNL1        0.1968
     35 C          22.1799   71.6614    1.4074 C.3     1  UNL1        0.1723
     36 C          22.5082   72.4368   -1.3609 C.3     1  UNL1        0.2706
     37 C          22.1592   73.0999    0.8986 C.3     1  UNL1        0.1830
     38 H          21.8949   68.7098    0.0770 H       1  UNL1        0.2105
     39 H          22.2523   69.2198   -1.7987 H       1  UNL1        0.2106
     40 H          21.2390   70.6288    2.8024 H       1  UNL1        0.2106
     41 O          23.1559   73.3512    3.0069 O.co2   1  UNL1       -0.5466
     42 O          23.0436   75.2036    1.6820 O.co2   1  UNL1       -0.5466
     43 C          22.8237   74.0169    1.8731 C.2     1  UNL1        0.0799
@<TRIPOS>UNITY_ATOM_ATTR
2 1
charge -1
26 1
charge -1
41 1
charge -1
@<TRIPOS>BOND
     1     1     4    1
     2     1    24    1
     3     1     2    1
     4     1     3    2
     5    25    28    1
     6    25    24    1
     7    25    26    1
     8    25    27    2
     9     6    11    1
    10     6    12    1
    11    29    36    1
    12    29    37    1
    13     7     9    1
    14     7    13    1
    15     8    10    1
    16     8    14    1
    17     4     5    1
    18    28    36    1
    19    30    33    1
    20    30    38    1
    21    31    34    1
    22    31    39    1
    23    32    35    1
    24    32    40    1
    25    41    43   ar
    26    15    19    2
    27    42    43   ar
    28    16    22    2
    29    17    12    1
    30    17    19   ar
    31    17    20   ar
    32    18    19   ar
    33    18    22   ar
    34    18    23    1
    35     9    10    1
    36     9    11    1
    37    10    12    1
    38    11     5    1
    39    33    34    1
    40    33    35    1
    41    34    36    1
    42    35    37    1
    43    37    43    1
    44    20    21   ar
    45    21    22   ar
@<TRIPOS>MOLECULE
*****
 43 45 0 0 0
SMALL
GASTEIGER

@<TRIPOS>ATOM
      1 P          22.0824   73.0500   -4.5019 P.3     1  UNL1        0.2189
      2 O          21.8869   74.5398   -3.9008 O.co2   1  UNL1       -0.4371
      3 O          23.4921   72.5362   -4.4754 O.2     1  UNL1       -0.5170
      4 O          21.3897   73.1262   -5.9621 O.3     1  UNL1       -0.3112
      5 C          22.2179   73.0525   -7.1080 C.3     1  UNL1        0.1811
      6 O          20.5636   73.0801   -8.8516 O.3     1  UNL1       -0.3308
      7 O          20.8414   76.0656   -8.8124 O.3     1  UNL1       -0.3794
      8 O          18.5494   75.6617   -7.3913 O.3     1  UNL1       -0.3779
      9 C          20.8998   75.1383   -7.7283 C.3     1  UNL1        0.1713
     10 C          19.5126   74.6289   -7.3990 C.3     1  UNL1        0.1895
     11 C          21.5925   73.8770   -8.2259 C.3     1  UNL1        0.1764
     12 C          19.2766   73.6174   -8.5076 C.3     1  UNL1        0.2383
     13 H          20.4027   76.8798   -8.5186 H       1  UNL1        0.2105
     14 H          18.7431   76.2791   -6.6680 H       1  UNL1        0.2106
     15 O          19.9030   70.8775   -8.7852 O.2     1  UNL1       -0.2464
     16 O          15.9041   69.5841   -6.8929 O.2     1  UNL1       -0.2670
     17 N          18.4173   72.5436   -8.0958 N.ar    1  UNL1       -0.2551
     18 N          17.9103   70.2359   -7.8434 N.ar    1  UNL1       -0.2743
     19 C          18.8265   71.2017   -8.2802 C.ar    1  UNL1        0.3323
     20 C          17.1862   72.8241   -7.5155 C.ar    1  UNL1        0.0869
     21 C          16.3237   71.8927   -7.1040 C.ar    1  UNL1        0.0795
     22 C          16.6743   70.4659   -7.2612 C.ar    1  UNL1        0.2626
     23 H          18.1722   69.2944   -7.9632 H       1  UNL1        0.1734
     24 O          21.0295   72.1721   -3.6455 O.3     1  UNL1       -0.2703
     25 P          19.8583   72.6185   -2.6244 P.3     1  UNL1        0.2208
     26 O          18.7444   71.4586   -2.8094 O.co2   1  UNL1       -0.4371
     27 O          19.3440   74.0111   -2.8482 O.2     1  UNL1       -0.5170
     28 O          20.4749   72.3605   -1.1562 O.3     1  UNL1       -0.2858
     29 O          21.9586   73.6926    0.1217 O.3     1  UNL1       -0.3226
     30 O          23.0139   69.8801    1.3129 O.3     1  UNL1       -0.3794
     31 O          22.4730   70.4563   -1.4995 O.3     1  UNL1       -0.3775
     32 O          21.4252   71.5693    3.0660 O.3     1  UNL1       -0.3792
     33 C          22.1309   70.9063    0.8598 C.3     1  UNL1        0.1718
     34 C          22.6188   71.4440   -0.4856 C.3     1  UNL1        0.1968
     35 C          22.1244   72.0214    1.9079 C.3     1  UNL1        0.1723
     36 C          21.8364   72.6937   -0.8916 C.3     1  UNL1        0.2706
     37 C          21.4354   73.2769    1.3812 C.3     1  UNL1        0.1830
     38 H          23.0343   69.1605    0.6626 H       1  UNL1        0.2105
     39 H          22.9668   69.6604   -1.2484 H       1  UNL1        0.2106
     40 H          21.8536   70.7704    3.4111 H       1  UNL1        0.2106
     41 O          22.7837   74.1964    3.0660 O.co2   1  UNL1       -0.5466
     42 O          21.0846   75.4923    2.2703 O.co2   1  UNL1       -0.5466
     43 C          21.7186   74.4478    2.2651 C.2     1  UNL1        0.0799
@<TRIPOS>UNITY_ATOM_ATTR
2 1
charge -1
26 1
charge -1
41 1
charge -1
@<TRIPOS>BOND
     1     1     4    1
     2     1    24    1
     3     1     2    1
     4     1     3    2
     5    25    28    1
     6    25    24    1
     7    25    26    1
     8    25    27    2
     9     6    11    1
    10     6    12    1
    11    29    36    1
    12    29    37    1
    13     7     9    1
    14     7    13    1
    15     8    10    1
    16     8    14    1
    17     4     5    1
    18    28    36    1
    19    30    33    1
    20    30    38    1
    21    31    34    1
    22    31    39    1
    23    32    35    1
    24    32    40    1
    25    41    43   ar
    26    15    19    2
    27    42    43   ar
    28    16    22    2
    29    17    12    1
    30    17    19   ar
    31    17    20   ar
    32    18    19   ar
    33    18    22   ar
    34    18    23    1
    35     9    10    1
    36     9    11    1
    37    10    12    1
    38    11     5    1
    39    33    34    1
    40    33    35    1
    41    34    36    1
    42    35    37    1
    43    37    43    1
    44    20    21   ar
    45    21    22   ar
@<TRIPOS>MOLECULE
*****
 43 45 0 0 0
SMALL
GASTEIGER

@<TRIPOS>ATOM
      1 P          23.4408   74.5874   -4.0910 P.3     1  UNL1        0.2189
      2 O          24.1702   75.5045   -5.2072 O.co2   1  UNL1       -0.4371
      3 O          24.1916   73.3485   -3.6997 O.2     1  UNL1       -0.5170
      4 O          21.9576   74.3497   -4.6922 O.3     1  UNL1       -0.3112
      5 C          21.6760   74.8127   -6.0002 C.3     1  UNL1        0.1811
      6 O          21.4493   72.4637   -6.4567 O.3     1  UNL1       -0.3308
      7 O          22.0117   73.1554   -9.3197 O.3     1  UNL1       -0.3794
      8 O          19.3011   72.8586   -9.2998 O.3     1  UNL1       -0.3779
      9 C          21.2811   73.8921   -8.3388 C.3     1  UNL1        0.1713
     10 C          19.9318   73.2490   -8.0980 C.3     1  UNL1        0.1895
     11 C          21.9709   73.6978   -6.9954 C.3     1  UNL1        0.1764
     12 C          20.2987   72.0656   -7.2189 C.3     1  UNL1        0.2383
     13 H          21.5898   73.2642  -10.1868 H       1  UNL1        0.2105
     14 H          19.0874   73.6472   -9.8237 H       1  UNL1        0.2106
     15 O          18.0921   70.4449   -7.9120 O.2     1  UNL1       -0.2464
     16 O          16.3058   70.7480   -3.6739 O.2     1  UNL1       -0.2670
     17 N          19.2424   71.7052   -6.3161 N.ar    1  UNL1       -0.2551
     18 N          17.2040   70.5982   -5.8008 N.ar    1  UNL1       -0.2743
     19 C          18.1793   70.8861   -6.7645 C.ar    1  UNL1        0.3323
     20 C          19.2667   72.1600   -5.0033 C.ar    1  UNL1        0.0869
     21 C          18.3298   71.8771   -4.0961 C.ar    1  UNL1        0.0795
     22 C          17.1845   71.0277   -4.4837 C.ar    1  UNL1        0.2626
     23 H          16.4528   70.0313   -6.0901 H       1  UNL1        0.1734
     24 O          23.1801   75.6271   -2.8811 O.3     1  UNL1       -0.2703
     25 P          22.0303   75.6672   -1.7453 P.3     1  UNL1        0.2208
     26 O          20.6610   75.7215   -2.6069 O.co2   1  UNL1       -0.4371
     27 O          22.1821   76.7849   -0.7545 O.2     1  UNL1       -0.5170
     28 O          22.0446   74.1905   -1.0960 O.3     1  UNL1       -0.2858
     29 O          20.8916   72.1281   -0.9339 O.3     1  UNL1       -0.3226
     30 O          20.8305   73.4357    2.9846 O.3     1  UNL1       -0.3794
     31 O          20.3319   75.3017    0.7929 O.3     1  UNL1       -0.3775
     32 O          22.6537   71.3188    2.1809 O.3     1  UNL1       -0.3792
     33 C          21.3630   73.2877    1.6683 C.3     1  UNL1        0.1718
     34 C          20.3903   73.8870    0.6524 C.3     1  UNL1        0.1968
     35 C          21.5571   71.7932    1.4020 C.3     1  UNL1        0.1723
     36 C          20.8130   73.5454   -0.7771 C.3     1  UNL1        0.2706
     37 C          21.8520   71.5235   -0.0707 C.3     1  UNL1        0.1830
     38 H          20.6987   74.3776    3.1762 H       1  UNL1        0.2105
     39 H          20.0645   75.5256    1.6977 H       1  UNL1        0.2106
     40 H          22.4786   71.4846    3.1204 H       1  UNL1        0.2106
     41 O          22.0680   69.3148    0.6884 O.co2   1  UNL1       -0.5466
     42 O          21.3324   69.6127   -1.4492 O.co2   1  UNL1       -0.5466
     43 C          21.7137   70.0687   -0.3817 C.2     1  UNL1        0.0799
@<TRIPOS>UNITY_ATOM_ATTR
2 1
charge -1
26 1
charge -1
41 1
charge -1
@<TRIPOS>BOND
     1     1     4    1
     2     1    24    1
     3     1     2    1
     4     1     3    2
     5    25    28    1
     6    25    24    1
     7    25    26    1
     8    25    27    2
     9     6    11    1
    10     6    12    1
    11    29    36    1
    12    29    37    1
    13     7     9    1
    14     7    13    1
    15     8    10    1
    16     8    14    1
    17     4     5    1
    18    28    36    1
    19    30    33    1
    20    30    38    1
    21    31    34    1
    22    31    39    1
    23    32    35    1
    24    32    40    1
    25    41    43   ar
    26    15    19    2
    27    42    43   ar
    28    16    22    2
    29    17    12    1
    30    17    19   ar
    31    17    20   ar
    32    18    19   ar
    33    18    22   ar
    34    18    23    1
    35     9    10    1
    36     9    11    1
    37    10    12    1
    38    11     5    1
    39    33    34    1
    40    33    35    1
    41    34    36    1
    42    35    37    1
    43    37    43    1
    44    20    21   ar
    45    21    22   ar
@<TRIPOS>MOLECULE
*****
 43 45 0 0 0
SMALL
GASTEIGER

@<TRIPOS>ATOM
      1 P          23.4117   73.0766   -3.9622 P.3     1  UNL1        0.2189
      2 O          24.8051   73.8816   -3.7916 O.co2   1  UNL1       -0.4371
      3 O          23.4421   71.6511   -3.4944 O.2     1  UNL1       -0.5170
      4 O          23.0232   73.2976   -5.5173 O.3     1  UNL1       -0.3112
      5 C          22.0135   74.2379   -5.8349 C.3     1  UNL1        0.1811
      6 O          21.3822   73.5402   -8.0468 O.3     1  UNL1       -0.3308
      7 O          21.9836   76.3502   -8.9034 O.3     1  UNL1       -0.3794
      8 O          19.2630   76.3534   -8.7169 O.3     1  UNL1       -0.3779
      9 C          21.4120   75.8805   -7.6822 C.3     1  UNL1        0.1713
     10 C          19.9797   75.4446   -7.9075 C.3     1  UNL1        0.1895
     11 C          22.0915   74.5669   -7.3202 C.3     1  UNL1        0.1764
     12 C          20.1627   74.0899   -8.5702 C.3     1  UNL1        0.2383
     13 H          21.5651   77.1887   -9.1551 H       1  UNL1        0.2105
     14 H          19.1730   77.1999   -8.2508 H       1  UNL1        0.2106
     15 O          19.4112   71.9235  -10.2189 O.2     1  UNL1       -0.2464
     16 O          16.0040   70.6980   -7.3671 O.2     1  UNL1       -0.2670
     17 N          19.0830   73.1887   -8.2825 N.ar    1  UNL1       -0.2551
     18 N          17.7143   71.3158   -8.7975 N.ar    1  UNL1       -0.2743
     19 C          18.7877   72.1327   -9.1767 C.ar    1  UNL1        0.3323
     20 C          18.3311   73.3542   -7.1257 C.ar    1  UNL1        0.0869
     21 C          17.3109   72.5674   -6.7776 C.ar    1  UNL1        0.0795
     22 C          16.9366   71.4410   -7.6577 C.ar    1  UNL1        0.2626
     23 H          17.4885   70.5750   -9.4053 H       1  UNL1        0.1734
     24 O          22.3514   74.0177   -3.1856 O.3     1  UNL1       -0.2703
     25 P          21.2240   73.6609   -2.0832 P.3     1  UNL1        0.2208
     26 O          20.1652   74.8765   -2.2302 O.co2   1  UNL1       -0.4371
     27 O          21.7596   73.4719   -0.6935 O.2     1  UNL1       -0.5170
     28 O          20.4554   72.3764   -2.6848 O.3     1  UNL1       -0.2858
     29 O          18.3171   71.6906   -1.9322 O.3     1  UNL1       -0.3226
     30 O          19.7737   68.2087   -3.6123 O.3     1  UNL1       -0.3794
     31 O          21.5043   69.9000   -1.9756 O.3     1  UNL1       -0.3775
     32 O          17.7757   69.7832   -5.0195 O.3     1  UNL1       -0.3792
     33 C          19.6147   69.6204   -3.4713 C.3     1  UNL1        0.1718
     34 C          20.0940   70.0535   -2.0856 C.3     1  UNL1        0.1968
     35 C          18.1305   69.9491   -3.6480 C.3     1  UNL1        0.1723
     36 C          19.7290   71.5132   -1.8120 C.3     1  UNL1        0.2706
     37 C          17.8253   71.3862   -3.2355 C.3     1  UNL1        0.1830
     38 H          20.7093   67.9761   -3.5039 H       1  UNL1        0.2105
     39 H          21.7430   68.9761   -2.1483 H       1  UNL1        0.2106
     40 H          17.9652   68.8726   -5.2946 H       1  UNL1        0.2106
     41 O          15.9833   71.5460   -1.7923 O.co2   1  UNL1       -0.5466
     42 O          15.5809   71.7908   -4.0233 O.co2   1  UNL1       -0.5466
     43 C          16.3527   71.5967   -3.0961 C.2     1  UNL1        0.0799
@<TRIPOS>UNITY_ATOM_ATTR
2 1
charge -1
26 1
charge -1
41 1
charge -1
@<TRIPOS>BOND
     1     1     4    1
     2     1    24    1
     3     1     2    1
     4     1     3    2
     5    25    28    1
     6    25    24    1
     7    25    26    1
     8    25    27    2
     9     6    11    1
    10     6    12    1
    11    29    36    1
    12    29    37    1
    13     7     9    1
    14     7    13    1
    15     8    10    1
    16     8    14    1
    17     4     5    1
    18    28    36    1
    19    30    33    1
    20    30    38    1
    21    31    34    1
    22    31    39    1
    23    32    35    1
    24    32    40    1
    25    41    43   ar
    26    15    19    2
    27    42    43   ar
    28    16    22    2
    29    17    12    1
    30    17    19   ar
    31    17    20   ar
    32    18    19   ar
    33    18    22   ar
    34    18    23    1
    35     9    10    1
    36     9    11    1
    37    10    12    1
    38    11     5    1
    39    33    34    1
    40    33    35    1
    41    34    36    1
    42    35    37    1
    43    37    43    1
    44    20    21   ar
    45    21    22   ar
@<TRIPOS>MOLECULE
*****
 43 45 0 0 0
SMALL
GASTEIGER

@<TRIPOS>ATOM
      1 P          21.2210   73.2630   -4.8984 P.3     1  UNL1        0.2189
      2 O          21.6617   74.8162   -4.7877 O.co2   1  UNL1       -0.4371
      3 O          21.6651   72.5661   -6.1510 O.2     1  UNL1       -0.5170
      4 O          19.6242   73.2928   -4.6394 O.3     1  UNL1       -0.3112
      5 C          19.1561   73.3083   -3.3033 C.3     1  UNL1        0.1811
      6 O          17.1668   73.1583   -4.6441 O.3     1  UNL1       -0.3308
      7 O          16.0024   71.5412   -2.4034 O.3     1  UNL1       -0.3794
      8 O          16.7115   69.6283   -4.2129 O.3     1  UNL1       -0.3779
      9 C          17.3428   71.5713   -2.8944 C.3     1  UNL1        0.1713
     10 C          17.4324   70.8427   -4.2186 C.3     1  UNL1        0.1895
     11 C          17.6635   73.0043   -3.2969 C.3     1  UNL1        0.1764
     12 C          16.8499   71.8640   -5.1806 C.3     1  UNL1        0.2383
     13 H          15.7745   70.6355   -2.1399 H       1  UNL1        0.2105
     14 H          17.1216   69.0118   -3.5854 H       1  UNL1        0.2106
     15 O          16.3459   69.7251   -6.9547 O.2     1  UNL1       -0.2464
     16 O          19.0448   71.5524  -10.2138 O.2     1  UNL1       -0.2670
     17 N          17.4079   71.7556   -6.4989 N.ar    1  UNL1       -0.2551
     18 N          17.6914   70.6367   -8.5759 N.ar    1  UNL1       -0.2743
     19 C          17.0911   70.6403   -7.3099 C.ar    1  UNL1        0.3323
     20 C          18.2565   72.7469   -6.9765 C.ar    1  UNL1        0.0869
     21 C          18.8210   72.7297   -8.1855 C.ar    1  UNL1        0.0795
     22 C          18.5424   71.5989   -9.0950 C.ar    1  UNL1        0.2626
     23 H          17.4874   69.8692   -9.1578 H       1  UNL1        0.1734
     24 O          21.7991   72.6235   -3.5310 O.3     1  UNL1       -0.2703
     25 P          21.8547   71.0920   -3.0160 P.3     1  UNL1        0.2208
     26 O          23.4180   70.7042   -3.1773 O.co2   1  UNL1       -0.4371
     27 O          20.9114   70.1676   -3.7299 O.2     1  UNL1       -0.5170
     28 O          21.6211   71.1873   -1.4227 O.3     1  UNL1       -0.2858
     29 O          23.2421   72.6896   -0.5714 O.3     1  UNL1       -0.3226
     30 O          21.1593   71.6735    2.8488 O.3     1  UNL1       -0.3794
     31 O          21.8480   69.6342    0.8736 O.3     1  UNL1       -0.3775
     32 O          20.7339   74.2622    1.5963 O.3     1  UNL1       -0.3792
     33 C          21.3296   71.9319    1.4552 C.3     1  UNL1        0.1718
     34 C          22.3602   70.9617    0.8771 C.3     1  UNL1        0.1968
     35 C          21.8109   73.3760    1.2973 C.3     1  UNL1        0.1723
     36 C          22.7388   71.3533   -0.5520 C.3     1  UNL1        0.2706
     37 C          22.2887   73.6516   -0.1255 C.3     1  UNL1        0.1830
     38 H          20.8538   70.7612    2.9737 H       1  UNL1        0.2105
     39 H          21.6055   69.3793    1.7772 H       1  UNL1        0.2106
     40 H          20.4204   74.0970    2.4992 H       1  UNL1        0.2106
     41 O          24.3828   74.6956   -0.2869 O.co2   1  UNL1       -0.5466
     42 O          22.5525   76.0496   -0.1616 O.co2   1  UNL1       -0.5466
     43 C          23.0515   74.9346   -0.1897 C.2     1  UNL1        0.0799
@<TRIPOS>UNITY_ATOM_ATTR
2 1
charge -1
26 1
charge -1
41 1
charge -1
@<TRIPOS>BOND
     1     1     4    1
     2     1    24    1
     3     1     2    1
     4     1     3    2
     5    25    28    1
     6    25    24    1
     7    25    26    1
     8    25    27    2
     9     6    11    1
    10     6    12    1
    11    29    36    1
    12    29    37    1
    13     7     9    1
    14     7    13    1
    15     8    10    1
    16     8    14    1
    17     4     5    1
    18    28    36    1
    19    30    33    1
    20    30    38    1
    21    31    34    1
    22    31    39    1
    23    32    35    1
    24    32    40    1
    25    41    43   ar
    26    15    19    2
    27    42    43   ar
    28    16    22    2
    29    17    12    1
    30    17    19   ar
    31    17    20   ar
    32    18    19   ar
    33    18    22   ar
    34    18    23    1
    35     9    10    1
    36     9    11    1
    37    10    12    1
    38    11     5    1
    39    33    34    1
    40    33    35    1
    41    34    36    1
    42    35    37    1
    43    37    43    1
    44    20    21   ar
    45    21    22   ar
@<TRIPOS>MOLECULE
*****
 43 45 0 0 0
SMALL
GASTEIGER

@<TRIPOS>ATOM
      1 P          22.1382   70.5073   -0.1735 P.3     1  UNL1        0.2189
      2 O          20.8558   69.7596   -0.8180 O.co2   1  UNL1       -0.4371
      3 O          23.3087   69.6161    0.1222 O.2     1  UNL1       -0.5170
      4 O          21.5259   71.3064    1.0932 O.3     1  UNL1       -0.3112
      5 C          21.7884   72.6929    1.2089 C.3     1  UNL1        0.1811
      6 O          22.2331   74.4257    2.8143 O.3     1  UNL1       -0.3308
      7 O          22.0777   72.2765    4.8996 O.3     1  UNL1       -0.3794
      8 O          19.6356   73.4739    5.0950 O.3     1  UNL1       -0.3779
      9 C          21.3242   72.4237    3.6958 C.3     1  UNL1        0.1713
     10 C          20.3003   73.5283    3.8501 C.3     1  UNL1        0.1895
     11 C          22.2494   72.9936    2.6293 C.3     1  UNL1        0.1764
     12 C          21.1556   74.7746    3.6979 C.3     1  UNL1        0.2383
     13 H          21.5075   71.9137    5.5960 H       1  UNL1        0.2105
     14 H          19.1047   72.6629    5.1428 H       1  UNL1        0.2106
     15 O          21.6775   77.4924    4.2614 O.2     1  UNL1       -0.2464
     16 O          18.2924   78.9097    1.4727 O.2     1  UNL1       -0.2670
     17 N          20.4259   75.8743    3.1329 N.ar    1  UNL1       -0.2551
     18 N          19.9904   78.1956    2.8728 N.ar    1  UNL1       -0.2743
     19 C          20.7681   77.2021    3.4819 C.ar    1  UNL1        0.3323
     20 C          19.3863   75.6327    2.2431 C.ar    1  UNL1        0.0869
     21 C          18.6541   76.5901    1.6704 C.ar    1  UNL1        0.0795
     22 C          18.9462   78.0046    1.9824 C.ar    1  UNL1        0.2626
     23 H          20.2085   79.1280    3.1019 H       1  UNL1        0.1734
     24 O          22.4418   71.6874   -1.2355 O.3     1  UNL1       -0.2703
     25 P          22.5354   71.6649   -2.8493 P.3     1  UNL1        0.2208
     26 O          23.4882   70.3905   -3.1468 O.co2   1  UNL1       -0.4371
     27 O          23.0159   72.9512   -3.4563 O.2     1  UNL1       -0.5170
     28 O          21.0698   71.2004   -3.3379 O.3     1  UNL1       -0.2858
     29 O          19.6591   71.9126   -5.1019 O.3     1  UNL1       -0.3226
     30 O          16.9260   71.1242   -2.1057 O.3     1  UNL1       -0.3794
     31 O          19.4331   72.4960   -1.4998 O.3     1  UNL1       -0.3775
     32 O          17.2422   69.2655   -4.3184 O.3     1  UNL1       -0.3792
     33 C          18.1343   70.9510   -2.8460 C.3     1  UNL1        0.1718
     34 C          18.9449   72.2469   -2.8129 C.3     1  UNL1        0.1968
     35 C          17.7595   70.5943   -4.2862 C.3     1  UNL1        0.1723
     36 C          20.1283   72.1768   -3.7792 C.3     1  UNL1        0.2706
     37 C          18.9705   70.6688   -5.2117 C.3     1  UNL1        0.1830
     38 H          17.1392   71.3517   -1.1870 H       1  UNL1        0.2105
     39 H          18.6875   72.5414   -0.8813 H       1  UNL1        0.2106
     40 H          16.4710   69.2044   -3.7333 H       1  UNL1        0.2106
     41 O          19.6073   70.8549   -7.4615 O.co2   1  UNL1       -0.5466
     42 O          17.4023   70.4624   -7.0337 O.co2   1  UNL1       -0.5466
     43 C          18.5457   70.6459   -6.6440 C.2     1  UNL1        0.0799
@<TRIPOS>UNITY_ATOM_ATTR
2 1
charge -1
26 1
charge -1
41 1
charge -1
@<TRIPOS>BOND
     1     1     4    1
     2     1    24    1
     3     1     2    1
     4     1     3    2
     5    25    28    1
     6    25    24    1
     7    25    26    1
     8    25    27    2
     9     6    11    1
    10     6    12    1
    11    29    36    1
    12    29    37    1
    13     7     9    1
    14     7    13    1
    15     8    10    1
    16     8    14    1
    17     4     5    1
    18    28    36    1
    19    30    33    1
    20    30    38    1
    21    31    34    1
    22    31    39    1
    23    32    35    1
    24    32    40    1
    25    41    43   ar
    26    15    19    2
    27    42    43   ar
    28    16    22    2
    29    17    12    1
    30    17    19   ar
    31    17    20   ar
    32    18    19   ar
    33    18    22   ar
    34    18    23    1
    35     9    10    1
    36     9    11    1
    37    10    12    1
    38    11     5    1
    39    33    34    1
    40    33    35    1
    41    34    36    1
    42    35    37    1
    43    37    43    1
    44    20    21   ar
    45    21    22   ar
@<TRIPOS>MOLECULE
*****
 43 45 0 0 0
SMALL
GASTEIGER

@<TRIPOS>ATOM
      1 P          23.7825   73.8526   -3.8943 P.3     1  UNL1        0.2189
      2 O          25.2957   74.4195   -3.9831 O.co2   1  UNL1       -0.4371
      3 O          23.6718   72.3864   -3.5943 O.2     1  UNL1       -0.5170
      4 O          23.1032   74.3396   -5.2797 O.3     1  UNL1       -0.3112
      5 C          22.2921   73.4245   -5.9932 C.3     1  UNL1        0.1811
      6 O          21.4114   72.8990   -8.1672 O.3     1  UNL1       -0.3308
      7 O          22.1410   75.7040   -8.9359 O.3     1  UNL1       -0.3794
      8 O          19.4567   75.8869   -8.4919 O.3     1  UNL1       -0.3779
      9 C          21.6495   75.2071   -7.6909 C.3     1  UNL1        0.1713
     10 C          20.1740   74.8859   -7.8005 C.3     1  UNL1        0.1895
     11 C          22.2589   73.8308   -7.4609 C.3     1  UNL1        0.1764
     12 C          20.1939   73.5614   -8.5443 C.3     1  UNL1        0.2383
     13 H          21.7654   76.5827   -9.1046 H       1  UNL1        0.2105
     14 H          19.4732   76.7099   -7.9777 H       1  UNL1        0.2106
     15 O          17.6329   73.7502   -9.7199 O.2     1  UNL1       -0.2464
     16 O          15.9969   70.2931   -7.1477 O.2     1  UNL1       -0.2670
     17 N          19.0804   72.7231   -8.2006 N.ar    1  UNL1       -0.2551
     18 N          16.8203   72.0288   -8.4370 N.ar    1  UNL1       -0.2743
     19 C          17.8363   72.9003   -8.8508 C.ar    1  UNL1        0.3323
     20 C          19.2269   71.7383   -7.2313 C.ar    1  UNL1        0.0869
     21 C          18.2493   70.9151   -6.8475 C.ar    1  UNL1        0.0795
     22 C          16.9178   71.0346   -7.4770 C.ar    1  UNL1        0.2626
     23 H          15.9444   72.1344   -8.8740 H       1  UNL1        0.1734
     24 O          23.0971   74.8185   -2.7943 O.3     1  UNL1       -0.2703
     25 P          21.5664   74.9300   -2.2862 P.3     1  UNL1        0.2208
     26 O          20.8486   75.7838   -3.4592 O.co2   1  UNL1       -0.4371
     27 O          21.4147   75.5170   -0.9127 O.2     1  UNL1       -0.5170
     28 O          20.9724   73.4387   -2.4463 O.3     1  UNL1       -0.2858
     29 O          19.3032   71.9369   -1.6931 O.3     1  UNL1       -0.3226
     30 O          22.7649   69.9441   -0.6378 O.3     1  UNL1       -0.3794
     31 O          22.5313   72.8268   -0.2255 O.3     1  UNL1       -0.3775
     32 O          21.2270   69.0751   -2.9466 O.3     1  UNL1       -0.3792
     33 C          21.9463   70.8040   -1.4306 C.3     1  UNL1        0.1718
     34 C          21.4503   71.9701   -0.5752 C.3     1  UNL1        0.1968
     35 C          20.7632   69.9840   -1.9500 C.3     1  UNL1        0.1723
     36 C          20.3911   72.7835   -1.3204 C.3     1  UNL1        0.2706
     37 C          19.6927   70.8796   -2.5669 C.3     1  UNL1        0.1830
     38 H          23.5235   70.4436   -0.2967 H       1  UNL1        0.2105
     39 H          23.2073   72.3172    0.2474 H       1  UNL1        0.2106
     40 H          21.9090   68.4993   -2.5669 H       1  UNL1        0.2106
     41 O          17.4882   70.9054   -3.3676 O.co2   1  UNL1       -0.5466
     42 O          18.2355   68.9608   -2.4406 O.co2   1  UNL1       -0.5466
     43 C          18.4196   70.1237   -2.7672 C.2     1  UNL1        0.0799
@<TRIPOS>UNITY_ATOM_ATTR
2 1
charge -1
26 1
charge -1
41 1
charge -1
@<TRIPOS>BOND
     1     1     4    1
     2     1    24    1
     3     1     2    1
     4     1     3    2
     5    25    28    1
     6    25    24    1
     7    25    26    1
     8    25    27    2
     9     6    11    1
    10     6    12    1
    11    29    36    1
    12    29    37    1
    13     7     9    1
    14     7    13    1
    15     8    10    1
    16     8    14    1
    17     4     5    1
    18    28    36    1
    19    30    33    1
    20    30    38    1
    21    31    34    1
    22    31    39    1
    23    32    35    1
    24    32    40    1
    25    41    43   ar
    26    15    19    2
    27    42    43   ar
    28    16    22    2
    29    17    12    1
    30    17    19   ar
    31    17    20   ar
    32    18    19   ar
    33    18    22   ar
    34    18    23    1
    35     9    10    1
    36     9    11    1
    37    10    12    1
    38    11     5    1
    39    33    34    1
    40    33    35    1
    41    34    36    1
    42    35    37    1
    43    37    43    1
    44    20    21   ar
    45    21    22   ar
@<TRIPOS>MOLECULE
*****
 43 45 0 0 0
SMALL
GASTEIGER

@<TRIPOS>ATOM
      1 P          21.6511   73.5590   -5.7227 P.3     1  UNL1        0.2189
      2 O          20.6715   74.3425   -4.7002 O.co2   1  UNL1       -0.4371
      3 O          22.7818   74.3793   -6.2707 O.2     1  UNL1       -0.5170
      4 O          20.6433   72.9294   -6.8208 O.3     1  UNL1       -0.3112
      5 C          21.1736   72.0634   -7.8072 C.3     1  UNL1        0.1811
      6 O          18.8534   71.4585   -7.6393 O.3     1  UNL1       -0.3308
      7 O          19.0139   70.7700  -10.5533 O.3     1  UNL1       -0.3794
      8 O          17.8122   73.2176  -10.5847 O.3     1  UNL1       -0.3779
      9 C          19.6585   71.8234   -9.8369 C.3     1  UNL1        0.1713
     10 C          18.6633   72.9134   -9.4996 C.3     1  UNL1        0.1895
     11 C          20.0312   71.2946   -8.4585 C.3     1  UNL1        0.1764
     12 C          17.9174   72.3065   -8.3235 C.3     1  UNL1        0.2383
     13 H          18.7663   71.0841  -11.4375 H       1  UNL1        0.2105
     14 H          18.3342   73.6013  -11.3074 H       1  UNL1        0.2106
     15 O          15.9721   71.8311   -6.3320 O.2     1  UNL1       -0.2464
     16 O          16.1371   76.1993   -4.8704 O.2     1  UNL1       -0.2670
     17 N          17.4337   73.3016   -7.4089 N.ar    1  UNL1       -0.2551
     18 N          16.0554   74.0074   -5.6066 N.ar    1  UNL1       -0.2743
     19 C          16.4550   72.9593   -6.4461 C.ar    1  UNL1        0.3323
     20 C          17.9287   74.5986   -7.4697 C.ar    1  UNL1        0.0869
     21 C          17.5382   75.5870   -6.6627 C.ar    1  UNL1        0.0795
     22 C          16.5181   75.3131   -5.6292 C.ar    1  UNL1        0.2626
     23 H          15.3733   73.7938   -4.9295 H       1  UNL1        0.1734
     24 O          22.1098   72.2665   -4.8672 O.3     1  UNL1       -0.2703
     25 P          23.0485   72.1393   -3.5571 P.3     1  UNL1        0.2208
     26 O          24.2694   73.1529   -3.8771 O.co2   1  UNL1       -0.4371
     27 O          23.4769   70.7357   -3.2405 O.2     1  UNL1       -0.5170
     28 O          22.2135   72.8654   -2.3832 O.3     1  UNL1       -0.2858
     29 O          21.4819   71.1103   -0.9713 O.3     1  UNL1       -0.3226
     30 O          20.1551   74.4447    1.0757 O.3     1  UNL1       -0.3794
     31 O          19.8878   74.2868   -1.8291 O.3     1  UNL1       -0.3775
     32 O          22.5000   72.9992    2.0049 O.3     1  UNL1       -0.3792
     33 C          21.0285   73.6971    0.2293 C.3     1  UNL1        0.1718
     34 C          20.2547   73.1972   -0.9908 C.3     1  UNL1        0.1968
     35 C          21.5718   72.5155    1.0359 C.3     1  UNL1        0.1723
     36 C          21.0912   72.2054   -1.8005 C.3     1  UNL1        0.2706
     37 C          22.2847   71.5087    0.1377 C.3     1  UNL1        0.1830
     38 H          19.7976   75.2010    0.5844 H       1  UNL1        0.2105
     39 H          19.3570   74.9202   -1.3217 H       1  UNL1        0.2106
     40 H          22.0588   73.6412    2.5830 H       1  UNL1        0.2106
     41 O          21.6132   69.2875    0.4799 O.co2   1  UNL1       -0.5466
     42 O          23.3997   70.0316    1.6857 O.co2   1  UNL1       -0.5466
     43 C          22.5174   70.2230    0.8624 C.2     1  UNL1        0.0799
@<TRIPOS>UNITY_ATOM_ATTR
2 1
charge -1
26 1
charge -1
41 1
charge -1
@<TRIPOS>BOND
     1     1     4    1
     2     1    24    1
     3     1     2    1
     4     1     3    2
     5    25    28    1
     6    25    24    1
     7    25    26    1
     8    25    27    2
     9     6    11    1
    10     6    12    1
    11    29    36    1
    12    29    37    1
    13     7     9    1
    14     7    13    1
    15     8    10    1
    16     8    14    1
    17     4     5    1
    18    28    36    1
    19    30    33    1
    20    30    38    1
    21    31    34    1
    22    31    39    1
    23    32    35    1
    24    32    40    1
    25    41    43   ar
    26    15    19    2
    27    42    43   ar
    28    16    22    2
    29    17    12    1
    30    17    19   ar
    31    17    20   ar
    32    18    19   ar
    33    18    22   ar
    34    18    23    1
    35     9    10    1
    36     9    11    1
    37    10    12    1
    38    11     5    1
    39    33    34    1
    40    33    35    1
    41    34    36    1
    42    35    37    1
    43    37    43    1
    44    20    21   ar
    45    21    22   ar
@<TRIPOS>MOLECULE
*****
 43 45 0 0 0
SMALL
GASTEIGER

@<TRIPOS>ATOM
      1 P          21.9080   72.9724   -1.7582 P.3     1  UNL1        0.2189
      2 O          22.7558   72.4823   -0.4698 O.co2   1  UNL1       -0.4371
      3 O          21.0933   74.2145   -1.5455 O.2     1  UNL1       -0.5170
      4 O          21.0789   71.6556   -2.2016 O.3     1  UNL1       -0.3112
      5 C          20.4928   71.6277   -3.4901 C.3     1  UNL1        0.1811
      6 O          18.5175   72.3801   -4.6346 O.3     1  UNL1       -0.3308
      7 O          16.9654   71.0579   -2.4360 O.3     1  UNL1       -0.3794
      8 O          16.7898   69.2433   -4.4639 O.3     1  UNL1       -0.3779
      9 C          18.1858   70.6480   -3.0533 C.3     1  UNL1        0.1713
     10 C          17.9141   70.0975   -4.4373 C.3     1  UNL1        0.1895
     11 C          18.9991   71.8978   -3.3616 C.3     1  UNL1        0.1764
     12 C          17.7038   71.3664   -5.2458 C.3     1  UNL1        0.2383
     13 H          16.4286   70.2762   -2.2297 H       1  UNL1        0.2105
     14 H          16.9736   68.4503   -3.9354 H       1  UNL1        0.2106
     15 O          16.1216   72.1322   -7.4563 O.2     1  UNL1       -0.2464
     16 O          19.3226   70.7350  -10.4638 O.2     1  UNL1       -0.2670
     17 N          18.0994   71.2141   -6.6173 N.ar    1  UNL1       -0.2551
     18 N          17.7170   71.4346   -8.9521 N.ar    1  UNL1       -0.2743
     19 C          17.2302   71.6309   -7.6531 C.ar    1  UNL1        0.3323
     20 C          19.3357   70.6592   -6.9251 C.ar    1  UNL1        0.0869
     21 C          19.7859   70.4786   -8.1683 C.ar    1  UNL1        0.0795
     22 C          18.9387   70.8866   -9.3080 C.ar    1  UNL1        0.2626
     23 H          17.1286   71.7153   -9.6900 H       1  UNL1        0.1734
     24 O          23.0362   73.0961   -2.9092 O.3     1  UNL1       -0.2703
     25 P          23.5470   74.3709   -3.7622 P.3     1  UNL1        0.2208
     26 O          25.1173   74.0546   -3.9955 O.co2   1  UNL1       -0.4371
     27 O          23.2730   75.6963   -3.1125 O.2     1  UNL1       -0.5170
     28 O          22.8740   74.1864   -5.2167 O.3     1  UNL1       -0.2858
     29 O          23.2215   75.5842   -7.0967 O.3     1  UNL1       -0.3226
     30 O          19.4718   74.0374   -7.8809 O.3     1  UNL1       -0.3794
     31 O          20.1848   74.8955   -5.1809 O.3     1  UNL1       -0.3775
     32 O          21.7911   73.0445   -9.3252 O.3     1  UNL1       -0.3792
     33 C          20.8018   74.0309   -7.3622 C.3     1  UNL1        0.1718
     34 C          20.9597   75.1608   -6.3444 C.3     1  UNL1        0.1968
     35 C          21.7669   74.2303   -8.5329 C.3     1  UNL1        0.1723
     36 C          22.4244   75.3313   -5.9391 C.3     1  UNL1        0.2706
     37 C          23.1833   74.5193   -8.0442 C.3     1  UNL1        0.1830
     38 H          18.8407   73.9122   -7.1547 H       1  UNL1        0.2105
     39 H          19.2542   74.7859   -5.4308 H       1  UNL1        0.2106
     40 H          20.8955   72.8493   -9.6424 H       1  UNL1        0.2106
     41 O          23.2792   75.6805  -10.0799 O.co2   1  UNL1       -0.5466
     42 O          25.2465   74.8926   -9.2381 O.co2   1  UNL1       -0.5466
     43 C          24.0351   75.0320   -9.1595 C.2     1  UNL1        0.0799
@<TRIPOS>UNITY_ATOM_ATTR
2 1
charge -1
26 1
charge -1
41 1
charge -1
@<TRIPOS>BOND
     1     1     4    1
     2     1    24    1
     3     1     2    1
     4     1     3    2
     5    25    28    1
     6    25    24    1
     7    25    26    1
     8    25    27    2
     9     6    11    1
    10     6    12    1
    11    29    36    1
    12    29    37    1
    13     7     9    1
    14     7    13    1
    15     8    10    1
    16     8    14    1
    17     4     5    1
    18    28    36    1
    19    30    33    1
    20    30    38    1
    21    31    34    1
    22    31    39    1
    23    32    35    1
    24    32    40    1
    25    41    43   ar
    26    15    19    2
    27    42    43   ar
    28    16    22    2
    29    17    12    1
    30    17    19   ar
    31    17    20   ar
    32    18    19   ar
    33    18    22   ar
    34    18    23    1
    35     9    10    1
    36     9    11    1
    37    10    12    1
    38    11     5    1
    39    33    34    1
    40    33    35    1
    41    34    36    1
    42    35    37    1
    43    37    43    1
    44    20    21   ar
    45    21    22   ar
@<TRIPOS>MOLECULE
*****
 43 45 0 0 0
SMALL
GASTEIGER

@<TRIPOS>ATOM
      1 P          21.5925   73.3197   -6.0834 P.3     1  UNL1        0.2189
      2 O          20.9887   74.6982   -6.6784 O.co2   1  UNL1       -0.4371
      3 O          22.7641   72.7633   -6.8382 O.2     1  UNL1       -0.5170
      4 O          20.3039   72.3479   -5.9704 O.3     1  UNL1       -0.3112
      5 C          20.4453   71.1136   -5.2913 C.3     1  UNL1        0.1811
      6 O          18.4193   72.0481   -4.3972 O.3     1  UNL1       -0.3308
      7 O          18.2461   69.5779   -2.7062 O.3     1  UNL1       -0.3794
      8 O          16.4753   69.0521   -4.7122 O.3     1  UNL1       -0.3779
      9 C          18.7153   69.7243   -4.0467 C.3     1  UNL1        0.1713
     10 C          17.5492   69.9259   -4.9911 C.3     1  UNL1        0.1895
     11 C          19.4412   71.0589   -4.1472 C.3     1  UNL1        0.1764
     12 C          17.1955   71.3833   -4.7487 C.3     1  UNL1        0.2383
     13 H          17.7787   68.7321   -2.6174 H       1  UNL1        0.2105
     14 H          16.7505   68.1371   -4.8821 H       1  UNL1        0.2106
     15 O          17.6127   70.4931   -7.3963 O.2     1  UNL1       -0.2464
     16 O          15.0134   73.8775   -9.1379 O.2     1  UNL1       -0.2670
     17 N          16.6396   72.0132   -5.9128 N.ar    1  UNL1       -0.2551
     18 N          16.3186   72.1802   -8.2613 N.ar    1  UNL1       -0.2743
     19 C          16.9109   71.4865   -7.1978 C.ar    1  UNL1        0.3323
     20 C          15.8350   73.1378   -5.7754 C.ar    1  UNL1        0.0869
     21 C          15.2774   73.7881   -6.7986 C.ar    1  UNL1        0.0795
     22 C          15.5117   73.3031   -8.1746 C.ar    1  UNL1        0.2626
     23 H          16.4947   71.8334   -9.1657 H       1  UNL1        0.1734
     24 O          21.9014   73.6945   -4.5417 O.3     1  UNL1       -0.2703
     25 P          23.1547   73.3244   -3.5899 P.3     1  UNL1        0.2208
     26 O          24.2525   74.4520   -3.9688 O.co2   1  UNL1       -0.4371
     27 O          23.6430   71.9122   -3.7361 O.2     1  UNL1       -0.5170
     28 O          22.6679   73.7139   -2.1021 O.3     1  UNL1       -0.2858
     29 O          21.1902   71.9912   -1.4254 O.3     1  UNL1       -0.3226
     30 O          21.3111   74.3693    1.9507 O.3     1  UNL1       -0.3794
     31 O          21.1449   75.5752   -0.7050 O.3     1  UNL1       -0.3775
     32 O          22.7684   71.8548    1.8841 O.3     1  UNL1       -0.3792
     33 C          21.8233   73.7663    0.7624 C.3     1  UNL1        0.1718
     34 C          20.9711   74.1891   -0.4344 C.3     1  UNL1        0.1968
     35 C          21.7714   72.2475    0.9427 C.3     1  UNL1        0.1723
     36 C          21.3442   73.3875   -1.6822 C.3     1  UNL1        0.2706
     37 C          22.0307   71.5210   -0.3739 C.3     1  UNL1        0.1830
     38 H          21.3342   75.3349    1.8593 H       1  UNL1        0.2105
     39 H          20.9102   76.0899    0.0827 H       1  UNL1        0.2106
     40 H          22.6148   72.3103    2.7266 H       1  UNL1        0.2106
     41 O          21.1232   69.6337   -1.4304 O.co2   1  UNL1       -0.5466
     42 O          21.8121   69.3863    0.7291 O.co2   1  UNL1       -0.5466
     43 C          21.6578   70.0782   -0.2661 C.2     1  UNL1        0.0799
@<TRIPOS>UNITY_ATOM_ATTR
2 1
charge -1
26 1
charge -1
41 1
charge -1
@<TRIPOS>BOND
     1     1     4    1
     2     1    24    1
     3     1     2    1
     4     1     3    2
     5    25    28    1
     6    25    24    1
     7    25    26    1
     8    25    27    2
     9     6    11    1
    10     6    12    1
    11    29    36    1
    12    29    37    1
    13     7     9    1
    14     7    13    1
    15     8    10    1
    16     8    14    1
    17     4     5    1
    18    28    36    1
    19    30    33    1
    20    30    38    1
    21    31    34    1
    22    31    39    1
    23    32    35    1
    24    32    40    1
    25    41    43   ar
    26    15    19    2
    27    42    43   ar
    28    16    22    2
    29    17    12    1
    30    17    19   ar
    31    17    20   ar
    32    18    19   ar
    33    18    22   ar
    34    18    23    1
    35     9    10    1
    36     9    11    1
    37    10    12    1
    38    11     5    1
    39    33    34    1
    40    33    35    1
    41    34    36    1
    42    35    37    1
    43    37    43    1
    44    20    21   ar
    45    21    22   ar
