@<TRIPOS>MOLECULE
UD2
 46 48 0 0 0
SMALL
GASTEIGER

@<TRIPOS>ATOM
      1 P          20.7668   71.0322   -3.1342 P.3     1  UNL1        0.2189
      2 O          20.9538   70.4870   -1.6312 O.3     1  UNL1       -0.4371
      3 O          20.8504   69.9010   -4.0840 O.2     1  UNL1       -0.5170
      4 O          19.3284   71.7435   -3.2718 O.3     1  UNL1       -0.3112
      5 C          18.1701   71.2977   -2.5640 C.3     1  UNL1        0.1811
      6 C          16.7923   70.5772   -5.8073 C.3     1  UNL1        0.2383
      7 C          16.9108   69.1940   -5.1182 C.3     1  UNL1        0.1895
      8 O          15.8879   68.3072   -5.5752 O.3     1  UNL1       -0.3779
      9 C          16.7032   69.5548   -3.6268 C.3     1  UNL1        0.1713
     10 C          17.0279   71.0591   -3.5546 C.3     1  UNL1        0.1764
     11 O          17.4274   71.4742   -4.8704 O.3     1  UNL1       -0.3308
     12 O          15.3490   69.3158   -3.2395 O.3     1  UNL1       -0.3794
     13 H          15.9203   67.4285   -5.1733 H       1  UNL1        0.2106
     14 H          15.0726   68.3932   -3.3219 H       1  UNL1        0.2105
     15 N          17.5043   70.5785   -7.0871 N.ar    1  UNL1       -0.2551
     16 C          16.8075   70.5783   -8.2374 C.ar    1  UNL1        0.3323
     17 N          17.4357   70.5793   -9.4280 N.ar    1  UNL1       -0.2743
     18 C          18.7830   70.5824   -9.4845 C.ar    1  UNL1        0.2626
     19 C          19.5292   70.5837   -8.2814 C.ar    1  UNL1        0.0795
     20 C          18.8732   70.5869   -7.1020 C.ar    1  UNL1        0.0869
     21 O          15.5921   70.5758   -8.2016 O.2     1  UNL1       -0.2464
     22 O          19.3528   70.5837  -10.5615 O.2     1  UNL1       -0.2670
     23 H          16.9180   70.5779  -10.2479 H       1  UNL1        0.1734
     24 O          21.9263   72.0992   -3.4665 O.3     1  UNL1       -0.2703
     25 P          23.5133   72.1454   -3.1979 P.3     1  UNL1        0.2208
     26 O          24.0913   70.6433   -3.1404 O.3     1  UNL1       -0.4371
     27 O          24.1776   72.8874   -4.2917 O.2     1  UNL1       -0.5170
     28 O          23.7990   72.8849   -1.7964 O.3     1  UNL1       -0.2865
     29 C          22.8716   73.7858   -1.1883 C.3     1  UNL1        0.2611
     30 C          23.6373   74.8838   -0.4461 C.3     1  UNL1        0.1582
     31 C          24.4691   74.2478    0.6719 C.3     1  UNL1        0.1625
     32 C          23.5402   73.4595    1.5993 C.3     1  UNL1        0.1686
     33 C          22.7781   72.4161    0.7781 C.3     1  UNL1        0.1760
     34 O          25.1302   75.2729    1.4170 O.3     1  UNL1       -0.3801
     35 O          22.6119   74.3526    2.2173 O.3     1  UNL1       -0.3794
     36 O          22.0503   73.0705   -0.2630 O.3     1  UNL1       -0.3263
     37 H          25.6769   74.9410    2.1423 H       1  UNL1        0.2105
     38 H          21.9903   73.9202    2.8195 H       1  UNL1        0.2105
     39 C          24.6522   76.9195   -1.3200 C.2     1  UNL1        0.2231
     40 C          25.5645   77.6352   -2.2812 C.3     1  UNL1        0.0946
     41 N          24.5247   75.5793   -1.3816 N.am    1  UNL1       -0.2994
     42 O          24.0312   77.5494   -0.4895 O.2     1  UNL1       -0.2751
     43 H          25.0202   75.0754   -2.0461 H       1  UNL1        0.1496
     44 C          21.8039   71.6642    1.6870 C.3     1  UNL1        0.1693
     45 O          21.5920   70.3475    1.1736 O.3     1  UNL1       -0.3794
     46 H          20.9833   69.8123    1.7010 H       1  UNL1        0.2105
@<TRIPOS>BOND
     1    29    30    1
     2    30    41    1
     3    30    31    1
     4    31    34    1
     5    31    32    1
     6    32    35    1
     7    32    33    1
     8    33    36    1
     9    33    44    1
    10    39    40    1
    11    39    42    2
    12    39    41   am
    13    41    43    1
    14    29    28    1
    15    34    37    1
    16    35    38    1
    17    29    36    1
    18    44    45    1
    19    45    46    1
    20    15     6    1
    21    15    16   ar
    22    16    21    2
    23    16    17   ar
    24    17    23    1
    25    17    18   ar
    26    18    19   ar
    27    19    20   ar
    28    15    20   ar
    29    18    22    2
    30     6     7    1
    31     6    11    1
    32     7     9    1
    33     7     8    1
    34     8    13    1
    35     9    10    1
    36     9    12    1
    37    10     5    1
    38    10    11    1
    39    12    14    1
    40     5     4    1
    41     4     1    1
    42     1     2    1
    43     1    24    1
    44     1     3    2
    45    24    25    1
    46    28    25    1
    47    25    26    1
    48    25    27    2
@<TRIPOS>MOLECULE
UD2
 46 48 0 0 0
SMALL
GASTEIGER

@<TRIPOS>ATOM
      1 P          22.6657   71.4413   -2.5667 P.3     1  UNL1        0.2189
      2 O          21.6328   70.2113   -2.6742 O.3     1  UNL1       -0.4371
      3 O          24.0280   70.9733   -2.9044 O.2     1  UNL1       -0.5170
      4 O          22.2268   72.6017   -3.5936 O.3     1  UNL1       -0.3112
      5 C          22.9231   72.8642   -4.8134 C.3     1  UNL1        0.1811
      6 C          19.8731   71.7269   -6.3434 C.3     1  UNL1        0.2383
      7 C          19.6575   73.2463   -6.1270 C.3     1  UNL1        0.1895
      8 O          18.8036   73.7891   -7.1359 O.3     1  UNL1       -0.3779
      9 C          21.0964   73.8017   -6.2637 C.3     1  UNL1        0.1713
     10 C          21.9980   72.5807   -5.9995 C.3     1  UNL1        0.1764
     11 O          21.1376   71.4717   -5.6942 O.3     1  UNL1       -0.3308
     12 O          21.3126   74.3078   -7.5820 O.3     1  UNL1       -0.3794
     13 H          18.6381   74.7371   -7.0432 H       1  UNL1        0.2106
     14 H          20.7301   75.0405   -7.8233 H       1  UNL1        0.2105
     15 N          18.8014   70.9580   -5.7067 N.ar    1  UNL1       -0.2551
     16 C          17.9165   70.2910   -6.4688 C.ar    1  UNL1        0.3323
     17 N          16.9214   69.5765   -5.9107 N.ar    1  UNL1       -0.2743
     18 C          16.7980   69.5176   -4.5691 C.ar    1  UNL1        0.2626
     19 C          17.7232   70.2141   -3.7547 C.ar    1  UNL1        0.0795
     20 C          18.7134   70.9190   -4.3411 C.ar    1  UNL1        0.0869
     21 O          18.0157   70.3350   -7.6799 O.2     1  UNL1       -0.2464
     22 O          15.8981   68.8710   -4.0626 O.2     1  UNL1       -0.2670
     23 H          16.2912   69.1025   -6.4749 H       1  UNL1        0.1734
     24 O          22.6543   72.0223   -1.0648 O.3     1  UNL1       -0.2703
     25 P          22.8505   71.3621    0.3907 P.3     1  UNL1        0.2208
     26 O          21.6855   70.2807    0.6503 O.3     1  UNL1       -0.4371
     27 O          24.1678   70.6922    0.4554 O.2     1  UNL1       -0.5170
     28 O          22.7766   72.5117    1.5157 O.3     1  UNL1       -0.2865
     29 C          23.4659   73.7579    1.4016 C.3     1  UNL1        0.2611
     30 C          24.4085   73.9319    2.5950 C.3     1  UNL1        0.1582
     31 C          23.5830   73.9733    3.8847 C.3     1  UNL1        0.1625
     32 C          22.5571   75.1056    3.7854 C.3     1  UNL1        0.1686
     33 C          21.6857   74.8862    2.5459 C.3     1  UNL1        0.1760
     34 O          24.4484   74.2091    4.9977 O.3     1  UNL1       -0.3801
     35 O          23.2367   76.3576    3.6767 O.3     1  UNL1       -0.3794
     36 O          22.5174   74.8267    1.3854 O.3     1  UNL1       -0.3263
     37 H          23.9918   74.2468    5.8493 H       1  UNL1        0.2105
     38 H          22.6468   77.1215    3.6090 H       1  UNL1        0.2105
     39 C          26.6313   73.0138    2.9869 C.2     1  UNL1        0.2231
     40 C          27.5934   71.8562    3.0420 C.3     1  UNL1        0.0946
     41 N          25.3437   72.8054    2.6481 N.am    1  UNL1       -0.2994
     42 O          27.0153   74.1348    3.2476 O.2     1  UNL1       -0.2751
     43 H          25.0365   71.9094    2.4387 H       1  UNL1        0.1496
     44 C          20.6969   76.0452    2.4063 C.3     1  UNL1        0.1693
     45 O          21.2784   77.0743    1.6030 O.3     1  UNL1       -0.3794
     46 H          20.7060   77.8425    1.4720 H       1  UNL1        0.2105
@<TRIPOS>BOND
     1    29    30    1
     2    30    41    1
     3    30    31    1
     4    31    34    1
     5    31    32    1
     6    32    35    1
     7    32    33    1
     8    33    36    1
     9    33    44    1
    10    39    40    1
    11    39    42    2
    12    39    41   am
    13    41    43    1
    14    29    28    1
    15    34    37    1
    16    35    38    1
    17    29    36    1
    18    44    45    1
    19    45    46    1
    20    15     6    1
    21    15    16   ar
    22    16    21    2
    23    16    17   ar
    24    17    23    1
    25    17    18   ar
    26    18    19   ar
    27    19    20   ar
    28    15    20   ar
    29    18    22    2
    30     6     7    1
    31     6    11    1
    32     7     9    1
    33     7     8    1
    34     8    13    1
    35     9    10    1
    36     9    12    1
    37    10     5    1
    38    10    11    1
    39    12    14    1
    40     5     4    1
    41     4     1    1
    42     1     2    1
    43     1    24    1
    44     1     3    2
    45    24    25    1
    46    28    25    1
    47    25    26    1
    48    25    27    2
@<TRIPOS>MOLECULE
UD2
 46 48 0 0 0
SMALL
GASTEIGER

@<TRIPOS>ATOM
      1 P          20.6244   70.7478   -3.1108 P.3     1  UNL1        0.2189
      2 O          20.7698   69.5148   -4.1353 O.3     1  UNL1       -0.4371
      3 O          20.6253   72.0201   -3.8658 O.2     1  UNL1       -0.5170
      4 O          19.2422   70.6082   -2.2960 O.3     1  UNL1       -0.3112
      5 C          18.2344   71.6209   -2.2960 C.3     1  UNL1        0.1811
      6 C          16.8866   70.6498   -5.4861 C.3     1  UNL1        0.2383
      7 C          17.1840   69.3107   -4.7647 C.3     1  UNL1        0.1895
      8 O          16.2655   68.2956   -5.1745 O.3     1  UNL1       -0.3779
      9 C          16.9653   69.6862   -3.2786 C.3     1  UNL1        0.1713
     10 C          17.1089   71.2199   -3.2527 C.3     1  UNL1        0.1764
     11 O          17.4287   71.6422   -4.5879 O.3     1  UNL1       -0.3308
     12 O          15.6577   69.2986   -2.8533 O.3     1  UNL1       -0.3794
     13 H          16.4112   67.4388   -4.7510 H       1  UNL1        0.2106
     14 H          15.4922   68.3476   -2.9053 H       1  UNL1        0.2105
     15 N          17.5670   70.6997   -6.7821 N.ar    1  UNL1       -0.2551
     16 C          16.8775   70.4395   -7.9072 C.ar    1  UNL1        0.3323
     17 N          17.4772   70.4780   -9.1118 N.ar    1  UNL1       -0.2743
     18 C          18.7875   70.7821   -9.2082 C.ar    1  UNL1        0.2626
     19 C          19.5252   71.0591   -8.0321 C.ar    1  UNL1        0.0795
     20 C          18.8974   71.0175   -6.8382 C.ar    1  UNL1        0.0869
     21 O          15.6954   70.1641   -7.8353 O.2     1  UNL1       -0.2464
     22 O          19.3314   70.8176  -10.2979 O.2     1  UNL1       -0.2670
     23 H          16.9656   70.2866   -9.9129 H       1  UNL1        0.1734
     24 O          21.8593   70.7358   -2.0773 O.3     1  UNL1       -0.2703
     25 P          22.0515   71.2371   -0.5592 P.3     1  UNL1        0.2208
     26 O          20.8948   70.6035    0.3652 O.3     1  UNL1       -0.4371
     27 O          23.3745   70.8029   -0.0597 O.2     1  UNL1       -0.5170
     28 O          21.9592   72.8439   -0.5090 O.3     1  UNL1       -0.2865
     29 C          23.1103   73.6883   -0.4510 C.3     1  UNL1        0.2611
     30 C          22.6856   75.1052   -0.0577 C.3     1  UNL1        0.1582
     31 C          21.7510   75.6661   -1.1340 C.3     1  UNL1        0.1625
     32 C          22.4675   75.6292   -2.4867 C.3     1  UNL1        0.1686
     33 C          22.9006   74.1917   -2.7864 C.3     1  UNL1        0.1760
     34 O          21.4079   77.0158   -0.8119 O.3     1  UNL1       -0.3801
     35 O          23.6177   76.4755   -2.4412 O.3     1  UNL1       -0.3794
     36 O          23.7423   73.7199   -1.7324 O.3     1  UNL1       -0.3263
     37 H          20.8161   77.4342   -1.4521 H       1  UNL1        0.2105
     38 H          24.1216   76.5001   -3.2667 H       1  UNL1        0.2105
     39 C          22.6369   75.3906    2.3617 C.2     1  UNL1        0.2231
     40 C          21.9166   75.3515    3.6839 C.3     1  UNL1        0.0946
     41 N          21.9843   75.0667    1.2280 N.am    1  UNL1       -0.2994
     42 O          23.8055   75.7138    2.3167 O.2     1  UNL1       -0.2751
     43 H          21.0503   74.8072    1.2637 H       1  UNL1        0.1496
     44 C          23.6697   74.1562   -4.1084 C.3     1  UNL1        0.1693
     45 O          24.4876   72.9851   -4.1532 O.3     1  UNL1       -0.3794
     46 H          25.0051   72.8969   -4.9653 H       1  UNL1        0.2105
@<TRIPOS>BOND
     1    29    30    1
     2    30    41    1
     3    30    31    1
     4    31    34    1
     5    31    32    1
     6    32    35    1
     7    32    33    1
     8    33    36    1
     9    33    44    1
    10    39    40    1
    11    39    42    2
    12    39    41   am
    13    41    43    1
    14    29    28    1
    15    34    37    1
    16    35    38    1
    17    29    36    1
    18    44    45    1
    19    45    46    1
    20    15     6    1
    21    15    16   ar
    22    16    21    2
    23    16    17   ar
    24    17    23    1
    25    17    18   ar
    26    18    19   ar
    27    19    20   ar
    28    15    20   ar
    29    18    22    2
    30     6     7    1
    31     6    11    1
    32     7     9    1
    33     7     8    1
    34     8    13    1
    35     9    10    1
    36     9    12    1
    37    10     5    1
    38    10    11    1
    39    12    14    1
    40     5     4    1
    41     4     1    1
    42     1     2    1
    43     1    24    1
    44     1     3    2
    45    24    25    1
    46    28    25    1
    47    25    26    1
    48    25    27    2
@<TRIPOS>MOLECULE
UD2
 46 48 0 0 0
SMALL
GASTEIGER

@<TRIPOS>ATOM
      1 P          20.3879   72.9536   -1.4040 P.3     1  UNL1        0.2189
      2 O          21.8107   73.0989   -2.1429 O.3     1  UNL1       -0.4371
      3 O          19.9175   74.2879   -0.9714 O.2     1  UNL1       -0.5170
      4 O          19.3179   72.3112   -2.4220 O.3     1  UNL1       -0.3112
      5 C          18.2887   73.0760   -3.0522 C.3     1  UNL1        0.1811
      6 C          17.1560   70.9072   -5.6885 C.3     1  UNL1        0.2383
      7 C          17.8604   69.9622   -4.6821 C.3     1  UNL1        0.1895
      8 O          17.2628   68.6644   -4.6969 O.3     1  UNL1       -0.3779
      9 C          17.6016   70.6741   -3.3316 C.3     1  UNL1        0.1713
     10 C          17.2918   72.1305   -3.7270 C.3     1  UNL1        0.1764
     11 O          17.4202   72.2228   -5.1547 O.3     1  UNL1       -0.3308
     12 O          16.4827   70.0875   -2.6649 O.3     1  UNL1       -0.3794
     13 H          17.6694   68.0368   -4.0841 H       1  UNL1        0.2106
     14 H          16.6002   69.1535   -2.4449 H       1  UNL1        0.2105
     15 N          17.7392   70.7653   -7.0244 N.ar    1  UNL1       -0.2551
     16 C          16.9425   70.4979   -8.0744 C.ar    1  UNL1        0.3323
     17 N          17.4514   70.3621   -9.3133 N.ar    1  UNL1       -0.2743
     18 C          18.7772   70.4951   -9.5208 C.ar    1  UNL1        0.2626
     19 C          19.6274   70.7775   -8.4247 C.ar    1  UNL1        0.0795
     20 C          19.0896   70.9127   -7.1943 C.ar    1  UNL1        0.0869
     21 O          15.7451   70.3756   -7.9022 O.2     1  UNL1       -0.2464
     22 O          19.2390   70.3728  -10.6417 O.2     1  UNL1       -0.2670
     23 H          16.8629   70.1682  -10.0591 H       1  UNL1        0.1734
     24 O          20.5458   71.9969   -0.1183 O.3     1  UNL1       -0.2703
     25 P          21.8084   71.4237    0.7003 P.3     1  UNL1        0.2208
     26 O          21.5996   69.8507    0.9756 O.3     1  UNL1       -0.4371
     27 O          23.0423   71.6260   -0.0903 O.2     1  UNL1       -0.5170
     28 O          21.9361   72.2023    2.1040 O.3     1  UNL1       -0.2865
     29 C          22.1645   73.6097    2.1955 C.3     1  UNL1        0.2611
     30 C          23.0501   73.9061    3.4082 C.3     1  UNL1        0.1582
     31 C          22.3195   73.4696    4.6819 C.3     1  UNL1        0.1625
     32 C          20.9715   74.1917    4.7572 C.3     1  UNL1        0.1686
     33 C          20.1658   73.8841    3.4922 C.3     1  UNL1        0.1760
     34 O          23.1081   73.8098    5.8246 O.3     1  UNL1       -0.3801
     35 O          21.1889   75.6004    4.8549 O.3     1  UNL1       -0.3794
     36 O          20.9143   74.2861    2.3432 O.3     1  UNL1       -0.3263
     37 H          22.7055   73.5610    6.6679 H       1  UNL1        0.2105
     38 H          20.3757   76.1220    4.9058 H       1  UNL1        0.2105
     39 C          25.4810   73.8300    3.2588 C.2     1  UNL1        0.2231
     40 C          26.7754   73.0698    3.1351 C.3     1  UNL1        0.0946
     41 N          24.3087   73.1660    3.2876 N.am    1  UNL1       -0.2994
     42 O          25.4932   75.0410    3.3327 O.2     1  UNL1       -0.2751
     43 H          24.2984   72.1978    3.2276 H       1  UNL1        0.1496
     44 C          18.8419   74.6497    3.5323 C.3     1  UNL1        0.1693
     45 O          19.0373   75.9680    3.0164 O.3     1  UNL1       -0.3794
     46 H          18.2377   76.5117    3.0117 H       1  UNL1        0.2105
@<TRIPOS>BOND
     1    29    30    1
     2    30    41    1
     3    30    31    1
     4    31    34    1
     5    31    32    1
     6    32    35    1
     7    32    33    1
     8    33    36    1
     9    33    44    1
    10    39    40    1
    11    39    42    2
    12    39    41   am
    13    41    43    1
    14    29    28    1
    15    34    37    1
    16    35    38    1
    17    29    36    1
    18    44    45    1
    19    45    46    1
    20    15     6    1
    21    15    16   ar
    22    16    21    2
    23    16    17   ar
    24    17    23    1
    25    17    18   ar
    26    18    19   ar
    27    19    20   ar
    28    15    20   ar
    29    18    22    2
    30     6     7    1
    31     6    11    1
    32     7     9    1
    33     7     8    1
    34     8    13    1
    35     9    10    1
    36     9    12    1
    37    10     5    1
    38    10    11    1
    39    12    14    1
    40     5     4    1
    41     4     1    1
    42     1     2    1
    43     1    24    1
    44     1     3    2
    45    24    25    1
    46    28    25    1
    47    25    26    1
    48    25    27    2
@<TRIPOS>MOLECULE
UD2
 46 48 0 0 0
SMALL
GASTEIGER

@<TRIPOS>ATOM
      1 P          21.2689   71.5156    0.1278 P.3     1  UNL1        0.2189
      2 O          21.3862   70.1542    0.9787 O.3     1  UNL1       -0.4371
      3 O          20.5885   72.5485    0.9397 O.2     1  UNL1       -0.5170
      4 O          22.7429   72.0293   -0.2686 O.3     1  UNL1       -0.3112
      5 C          23.9176   71.6501    0.4509 C.3     1  UNL1        0.1811
      6 C          25.7443   73.2156    3.1246 C.3     1  UNL1        0.2383
      7 C          25.7227   74.2758    1.9943 C.3     1  UNL1        0.1895
      8 O          25.7304   75.5984    2.5353 O.3     1  UNL1       -0.3779
      9 C          24.3766   73.9744    1.2912 C.3     1  UNL1        0.1713
     10 C          24.0548   72.5242    1.6999 C.3     1  UNL1        0.1764
     11 O          25.1462   72.0551    2.5074 O.3     1  UNL1       -0.3308
     12 O          23.3601   74.8632    1.7577 O.3     1  UNL1       -0.3794
     13 H          25.7181   76.2970    1.8672 H       1  UNL1        0.2106
     14 H          23.5402   75.7961    1.5794 H       1  UNL1        0.2105
     15 N          27.1201   72.9296    3.5374 N.ar    1  UNL1       -0.2551
     16 C          27.7377   71.8263    3.0789 C.ar    1  UNL1        0.3323
     17 N          29.0017   71.5385    3.4418 N.ar    1  UNL1       -0.2743
     18 C          29.6722   72.3597    4.2752 C.ar    1  UNL1        0.2626
     19 C          29.0347   73.5251    4.7647 C.ar    1  UNL1        0.0795
     20 C          27.7684   73.7911    4.3809 C.ar    1  UNL1        0.0869
     21 O          27.1453   71.0770    2.3266 O.2     1  UNL1       -0.2464
     22 O          30.8164   72.1006    4.6041 O.2     1  UNL1       -0.2670
     23 H          29.4317   70.7383    3.1029 H       1  UNL1        0.1734
     24 O          20.4191   71.2399   -1.2121 O.3     1  UNL1       -0.2703
     25 P          20.7413   71.3617   -2.7851 P.3     1  UNL1        0.2208
     26 O          21.3273   72.8284   -3.1003 O.3     1  UNL1       -0.4371
     27 O          21.7412   70.3397   -3.1647 O.2     1  UNL1       -0.5170
     28 O          19.3897   71.1305   -3.6291 O.3     1  UNL1       -0.2865
     29 C          19.0046   69.8565   -4.1484 C.3     1  UNL1        0.2611
     30 C          18.1568   70.0527   -5.4076 C.3     1  UNL1        0.1582
     31 C          16.8778   70.8104   -5.0385 C.3     1  UNL1        0.1625
     32 C          16.1315   70.0317   -3.9518 C.3     1  UNL1        0.1686
     33 C          17.0576   69.8363   -2.7484 C.3     1  UNL1        0.1760
     34 O          16.0459   70.9338   -6.1943 O.3     1  UNL1       -0.3801
     35 O          15.7366   68.7574   -4.4631 O.3     1  UNL1       -0.3794
     36 O          18.2411   69.1532   -3.1662 O.3     1  UNL1       -0.3263
     37 H          15.2169   71.4052   -6.0333 H       1  UNL1        0.2105
     38 H          15.2580   68.2084   -3.8263 H       1  UNL1        0.2105
     39 C          18.8722   70.4847   -7.6965 C.2     1  UNL1        0.2231
     40 C          19.6528   71.2788   -8.7107 C.3     1  UNL1        0.0946
     41 N          18.9166   70.8255   -6.3935 N.am    1  UNL1       -0.2994
     42 O          18.2029   69.5373   -8.0524 O.2     1  UNL1       -0.2751
     43 H          19.4524   71.5823   -6.1084 H       1  UNL1        0.1496
     44 C          16.3395   69.0074   -1.6818 C.3     1  UNL1        0.1693
     45 O          14.9274   69.0857   -1.8874 O.3     1  UNL1       -0.3794
     46 H          14.4075   68.5825   -1.2458 H       1  UNL1        0.2105
@<TRIPOS>BOND
     1    29    30    1
     2    30    41    1
     3    30    31    1
     4    31    34    1
     5    31    32    1
     6    32    35    1
     7    32    33    1
     8    33    36    1
     9    33    44    1
    10    39    40    1
    11    39    42    2
    12    39    41   am
    13    41    43    1
    14    29    28    1
    15    34    37    1
    16    35    38    1
    17    29    36    1
    18    44    45    1
    19    45    46    1
    20    15     6    1
    21    15    16   ar
    22    16    21    2
    23    16    17   ar
    24    17    23    1
    25    17    18   ar
    26    18    19   ar
    27    19    20   ar
    28    15    20   ar
    29    18    22    2
    30     6     7    1
    31     6    11    1
    32     7     9    1
    33     7     8    1
    34     8    13    1
    35     9    10    1
    36     9    12    1
    37    10     5    1
    38    10    11    1
    39    12    14    1
    40     5     4    1
    41     4     1    1
    42     1     2    1
    43     1    24    1
    44     1     3    2
    45    24    25    1
    46    28    25    1
    47    25    26    1
    48    25    27    2
@<TRIPOS>MOLECULE
UD2
 46 48 0 0 0
SMALL
GASTEIGER

@<TRIPOS>ATOM
      1 P          20.4934   71.0696   -1.9793 P.3     1  UNL1        0.2189
      2 O          20.7152   70.4619   -0.5052 O.3     1  UNL1       -0.4371
      3 O          21.4833   70.4832   -2.9094 O.2     1  UNL1       -0.5170
      4 O          19.0060   70.7176   -2.4865 O.3     1  UNL1       -0.3112
      5 C          17.9734   71.6978   -2.6063 C.3     1  UNL1        0.1811
      6 C          16.7771   70.5161   -5.7858 C.3     1  UNL1        0.2383
      7 C          17.1276   69.2281   -4.9982 C.3     1  UNL1        0.1895
      8 O          16.2800   68.1456   -5.3874 O.3     1  UNL1       -0.3779
      9 C          16.8444   69.6535   -3.5366 C.3     1  UNL1        0.1713
     10 C          16.9009   71.1926   -3.5746 C.3     1  UNL1        0.1764
     11 O          17.2359   71.5753   -4.9180 O.3     1  UNL1       -0.3308
     12 O          15.5486   69.2100   -3.1301 O.3     1  UNL1       -0.3794
     13 H          16.4609   67.3174   -4.9227 H       1  UNL1        0.2106
     14 H          15.4382   68.2498   -3.1446 H       1  UNL1        0.2105
     15 N          17.4916   70.5497   -7.0638 N.ar    1  UNL1       -0.2551
     16 C          16.7970   70.5918   -8.2147 C.ar    1  UNL1        0.3323
     17 N          17.4275   70.6231   -9.4037 N.ar    1  UNL1       -0.2743
     18 C          18.7750   70.6146   -9.4579 C.ar    1  UNL1        0.2626
     19 C          19.5187   70.5715   -8.2541 C.ar    1  UNL1        0.0795
     20 C          18.8605   70.5450   -7.0761 C.ar    1  UNL1        0.0869
     21 O          15.5816   70.6001   -8.1811 O.2     1  UNL1       -0.2464
     22 O          19.3468   70.6434  -10.5333 O.2     1  UNL1       -0.2670
     23 H          16.9114   70.6521  -10.2241 H       1  UNL1        0.1734
     24 O          20.6800   72.6685   -1.9346 O.3     1  UNL1       -0.2703
     25 P          21.7387   73.6510   -1.2225 P.3     1  UNL1        0.2208
     26 O          23.2171   73.3416   -1.7813 O.3     1  UNL1       -0.4371
     27 O          21.3843   75.0564   -1.5184 O.2     1  UNL1       -0.5170
     28 O          21.7054   73.4124    0.3695 O.3     1  UNL1       -0.2865
     29 C          21.9814   74.4452    1.3174 C.3     1  UNL1        0.2611
     30 C          22.5283   73.8244    2.6051 C.3     1  UNL1        0.1582
     31 C          21.4619   72.9082    3.2130 C.3     1  UNL1        0.1625
     32 C          20.1859   73.7189    3.4558 C.3     1  UNL1        0.1686
     33 C          19.7291   74.3438    2.1349 C.3     1  UNL1        0.1760
     34 O          21.9365   72.3814    4.4542 O.3     1  UNL1       -0.3801
     35 O          20.4499   74.7515    4.4073 O.3     1  UNL1       -0.3794
     36 O          20.7778   75.1589    1.6076 O.3     1  UNL1       -0.3263
     37 H          21.3107   71.7906    4.8952 H       1  UNL1        0.2105
     38 H          19.6836   75.3066    4.6090 H       1  UNL1        0.2105
     39 C          23.6307   71.7190    2.0669 C.2     1  UNL1        0.2231
     40 C          24.8648   70.9147    1.7527 C.3     1  UNL1        0.0946
     41 N          23.7293   73.0427    2.2998 N.am    1  UNL1       -0.2994
     42 O          22.5469   71.1753    2.1105 O.2     1  UNL1       -0.2751
     43 H          24.5957   73.4776    2.2660 H       1  UNL1        0.1496
     44 C          18.4882   75.2043    2.3803 C.3     1  UNL1        0.1693
     45 O          17.8124   74.7437    3.5522 O.3     1  UNL1       -0.3794
     46 H          17.0141   75.2445    3.7689 H       1  UNL1        0.2105
@<TRIPOS>BOND
     1    29    30    1
     2    30    41    1
     3    30    31    1
     4    31    34    1
     5    31    32    1
     6    32    35    1
     7    32    33    1
     8    33    36    1
     9    33    44    1
    10    39    40    1
    11    39    42    2
    12    39    41   am
    13    41    43    1
    14    29    28    1
    15    34    37    1
    16    35    38    1
    17    29    36    1
    18    44    45    1
    19    45    46    1
    20    15     6    1
    21    15    16   ar
    22    16    21    2
    23    16    17   ar
    24    17    23    1
    25    17    18   ar
    26    18    19   ar
    27    19    20   ar
    28    15    20   ar
    29    18    22    2
    30     6     7    1
    31     6    11    1
    32     7     9    1
    33     7     8    1
    34     8    13    1
    35     9    10    1
    36     9    12    1
    37    10     5    1
    38    10    11    1
    39    12    14    1
    40     5     4    1
    41     4     1    1
    42     1     2    1
    43     1    24    1
    44     1     3    2
    45    24    25    1
    46    28    25    1
    47    25    26    1
    48    25    27    2
@<TRIPOS>MOLECULE
UD2
 46 48 0 0 0
SMALL
GASTEIGER

@<TRIPOS>ATOM
      1 P          19.5393   72.2453   -1.2690 P.3     1  UNL1        0.2189
      2 O          20.1309   72.7791   -2.6677 O.3     1  UNL1       -0.4371
      3 O          18.3523   73.0462   -0.8969 O.2     1  UNL1       -0.5170
      4 O          19.1172   70.6985   -1.4204 O.3     1  UNL1       -0.3112
      5 C          19.1735   69.9956   -2.6631 C.3     1  UNL1        0.1811
      6 C          17.3300   70.3766   -5.7279 C.3     1  UNL1        0.2383
      7 C          17.0355   68.9242   -5.2740 C.3     1  UNL1        0.1895
      8 O          15.7331   68.5128   -5.6938 O.3     1  UNL1       -0.3779
      9 C          17.1064   69.0447   -3.7319 C.3     1  UNL1        0.1713
     10 C          17.9293   70.3248   -3.4917 C.3     1  UNL1        0.1764
     11 O          18.3188   70.8308   -4.7784 O.3     1  UNL1       -0.3308
     12 O          15.7953   69.1816   -3.1814 O.3     1  UNL1       -0.3794
     13 H          15.5026   67.6106   -5.4340 H       1  UNL1        0.2106
     14 H          15.2147   68.4283   -3.3542 H       1  UNL1        0.2105
     15 N          17.8744   70.3918   -7.0875 N.ar    1  UNL1       -0.2551
     16 C          17.0382   70.4437   -8.1396 C.ar    1  UNL1        0.3323
     17 N          17.5108   70.4586   -9.4000 N.ar    1  UNL1       -0.2743
     18 C          18.8396   70.4232   -9.6271 C.ar    1  UNL1        0.2626
     19 C          19.7313   70.3695   -8.5289 C.ar    1  UNL1        0.0795
     20 C          19.2300   70.3599   -7.2759 C.ar    1  UNL1        0.0869
     21 O          15.8377   70.4763   -7.9497 O.2     1  UNL1       -0.2464
     22 O          19.2686   70.4371  -10.7674 O.2     1  UNL1       -0.2670
     23 H          16.8940   70.4950  -10.1472 H       1  UNL1        0.1734
     24 O          20.6620   72.3847   -0.1229 O.3     1  UNL1       -0.2703
     25 P          22.0025   71.5671    0.2341 P.3     1  UNL1        0.2208
     26 O          21.6343   70.3250    1.1908 O.3     1  UNL1       -0.4371
     27 O          22.6199   71.0629   -1.0122 O.2     1  UNL1       -0.5170
     28 O          23.0385   72.5396    0.9914 O.3     1  UNL1       -0.2865
     29 C          22.7399   73.9006    1.3073 C.3     1  UNL1        0.2611
     30 C          24.0329   74.7195    1.3138 C.3     1  UNL1        0.1582
     31 C          24.9623   74.1817    2.4062 C.3     1  UNL1        0.1625
     32 C          24.2347   74.2351    3.7523 C.3     1  UNL1        0.1686
     33 C          22.9335   73.4345    3.6518 C.3     1  UNL1        0.1760
     34 O          26.1417   74.9870    2.4685 O.3     1  UNL1       -0.3801
     35 O          23.9363   75.5932    4.0805 O.3     1  UNL1       -0.3794
     36 O          22.1290   73.9667    2.5975 O.3     1  UNL1       -0.3263
     37 H          26.7767   74.7023    3.1399 H       1  UNL1        0.2105
     38 H          23.4733   75.7024    4.9229 H       1  UNL1        0.2105
     39 C          24.1779   75.2376   -1.0628 C.2     1  UNL1        0.2231
     40 C          24.8546   75.1200   -2.4033 C.3     1  UNL1        0.0946
     41 N          24.6916   74.6044    0.0101 N.am    1  UNL1       -0.2994
     42 O          23.1697   75.9029   -0.9484 O.2     1  UNL1       -0.2751
     43 H          25.4971   74.0716   -0.0811 H       1  UNL1        0.1496
     44 C          22.1713   73.5324    4.9746 C.3     1  UNL1        0.1693
     45 O          22.4480   72.3786    5.7712 O.3     1  UNL1       -0.3794
     46 H          21.9969   72.3730    6.6265 H       1  UNL1        0.2105
@<TRIPOS>BOND
     1    29    30    1
     2    30    41    1
     3    30    31    1
     4    31    34    1
     5    31    32    1
     6    32    35    1
     7    32    33    1
     8    33    36    1
     9    33    44    1
    10    39    40    1
    11    39    42    2
    12    39    41   am
    13    41    43    1
    14    29    28    1
    15    34    37    1
    16    35    38    1
    17    29    36    1
    18    44    45    1
    19    45    46    1
    20    15     6    1
    21    15    16   ar
    22    16    21    2
    23    16    17   ar
    24    17    23    1
    25    17    18   ar
    26    18    19   ar
    27    19    20   ar
    28    15    20   ar
    29    18    22    2
    30     6     7    1
    31     6    11    1
    32     7     9    1
    33     7     8    1
    34     8    13    1
    35     9    10    1
    36     9    12    1
    37    10     5    1
    38    10    11    1
    39    12    14    1
    40     5     4    1
    41     4     1    1
    42     1     2    1
    43     1    24    1
    44     1     3    2
    45    24    25    1
    46    28    25    1
    47    25    26    1
    48    25    27    2
@<TRIPOS>MOLECULE
UD2
 46 48 0 0 0
SMALL
GASTEIGER

@<TRIPOS>ATOM
      1 P          21.4411   71.3159   -0.0801 P.3     1  UNL1        0.2189
      2 O          22.9374   71.4644   -0.6550 O.3     1  UNL1       -0.4371
      3 O          21.3690   70.1367    0.8105 O.2     1  UNL1       -0.5170
      4 O          21.0514   72.6399    0.7498 O.3     1  UNL1       -0.3112
      5 C          21.1670   72.7284    2.1711 C.3     1  UNL1        0.1811
      6 C          24.5005   73.9545    2.7372 C.3     1  UNL1        0.2383
      7 C          24.2138   74.2781    1.2489 C.3     1  UNL1        0.1895
      8 O          24.9082   75.4582    0.8405 O.3     1  UNL1       -0.3779
      9 C          22.6833   74.5124    1.2559 C.3     1  UNL1        0.1713
     10 C          22.1991   73.7993    2.5329 C.3     1  UNL1        0.1764
     11 O          23.3466   73.1861    3.1418 O.3     1  UNL1       -0.3308
     12 O          22.3927   75.9095    1.3220 O.3     1  UNL1       -0.3794
     13 H          24.7611   75.7016   -0.0835 H       1  UNL1        0.2106
     14 H          22.7272   76.4175    0.5707 H       1  UNL1        0.2105
     15 N          25.7225   73.1575    2.8656 N.ar    1  UNL1       -0.2551
     16 C          25.7289   71.8766    2.4556 C.ar    1  UNL1        0.3323
     17 N          26.8377   71.1206    2.5618 N.ar    1  UNL1       -0.2743
     18 C          27.9669   71.6416    3.0832 C.ar    1  UNL1        0.2626
     19 C          27.9747   72.9889    3.5179 C.ar    1  UNL1        0.0795
     20 C          26.8500   73.7248    3.3956 C.ar    1  UNL1        0.0869
     21 O          24.7178   71.3937    1.9832 O.2     1  UNL1       -0.2464
     22 O          28.9713   70.9586    3.1795 O.2     1  UNL1       -0.2670
     23 H          26.8246   70.1985    2.2624 H       1  UNL1        0.1734
     24 O          20.4117   71.1282   -1.3042 O.3     1  UNL1       -0.2703
     25 P          20.5617   71.1677   -2.9070 P.3     1  UNL1        0.2208
     26 O          20.9935   72.6489   -3.3687 O.3     1  UNL1       -0.4371
     27 O          21.5962   70.1986   -3.3299 O.2     1  UNL1       -0.5170
     28 O          19.1542   70.7820   -3.5872 O.3     1  UNL1       -0.2865
     29 C          18.3629   71.7169   -4.3228 C.3     1  UNL1        0.2611
     30 C          16.9867   71.1101   -4.6067 C.3     1  UNL1        0.1582
     31 C          17.1587   69.8608   -5.4762 C.3     1  UNL1        0.1625
     32 C          17.9003   70.2436   -6.7599 C.3     1  UNL1        0.1686
     33 C          19.2417   70.8839   -6.3929 C.3     1  UNL1        0.1760
     34 O          15.8737   69.3294   -5.8074 O.3     1  UNL1       -0.3801
     35 O          17.1144   71.1746   -7.5061 O.3     1  UNL1       -0.3794
     36 O          19.0123   72.0214   -5.5588 O.3     1  UNL1       -0.3263
     37 H          15.9071   68.5347   -6.3574 H       1  UNL1        0.2105
     38 H          17.5245   71.4620   -8.3339 H       1  UNL1        0.2105
     39 C          16.4731   69.4905   -2.8600 C.2     1  UNL1        0.2231
     40 C          15.8129   69.1115   -1.5604 C.3     1  UNL1        0.0946
     41 N          16.3440   70.7422   -3.3426 N.am    1  UNL1       -0.2994
     42 O          17.1218   68.6688   -3.4733 O.2     1  UNL1       -0.2751
     43 H          15.8246   71.3992   -2.8530 H       1  UNL1        0.1496
     44 C          19.9627   71.3235   -7.6685 C.3     1  UNL1        0.1693
     45 O          21.2879   70.7885   -7.6760 O.3     1  UNL1       -0.3794
     46 H          21.8047   71.0274   -8.4576 H       1  UNL1        0.2105
@<TRIPOS>BOND
     1    29    30    1
     2    30    41    1
     3    30    31    1
     4    31    34    1
     5    31    32    1
     6    32    35    1
     7    32    33    1
     8    33    36    1
     9    33    44    1
    10    39    40    1
    11    39    42    2
    12    39    41   am
    13    41    43    1
    14    29    28    1
    15    34    37    1
    16    35    38    1
    17    29    36    1
    18    44    45    1
    19    45    46    1
    20    15     6    1
    21    15    16   ar
    22    16    21    2
    23    16    17   ar
    24    17    23    1
    25    17    18   ar
    26    18    19   ar
    27    19    20   ar
    28    15    20   ar
    29    18    22    2
    30     6     7    1
    31     6    11    1
    32     7     9    1
    33     7     8    1
    34     8    13    1
    35     9    10    1
    36     9    12    1
    37    10     5    1
    38    10    11    1
    39    12    14    1
    40     5     4    1
    41     4     1    1
    42     1     2    1
    43     1    24    1
    44     1     3    2
    45    24    25    1
    46    28    25    1
    47    25    26    1
    48    25    27    2
@<TRIPOS>MOLECULE
UD2
 46 48 0 0 0
SMALL
GASTEIGER

@<TRIPOS>ATOM
      1 P          22.8542   73.0890   -3.7306 P.3     1  UNL1        0.2189
      2 O          23.4658   74.4393   -3.1029 O.3     1  UNL1       -0.4371
      3 O          23.9250   72.3351   -4.4189 O.2     1  UNL1       -0.5170
      4 O          22.2322   72.1836   -2.5529 O.3     1  UNL1       -0.3112
      5 C          22.0867   72.6484   -1.2096 C.3     1  UNL1        0.1811
      6 C          24.2852   71.8186    1.5133 C.3     1  UNL1        0.2383
      7 C          22.8839   71.9346    2.1653 C.3     1  UNL1        0.1895
      8 O          22.7692   71.0572    3.2872 O.3     1  UNL1       -0.3779
      9 C          21.9514   71.4842    1.0142 C.3     1  UNL1        0.1713
     10 C          22.7984   71.6847   -0.2569 C.3     1  UNL1        0.1764
     11 O          24.0577   72.2422    0.1516 O.3     1  UNL1       -0.3308
     12 O          21.5973   70.1088    1.1681 O.3     1  UNL1       -0.3794
     13 H          21.9102   71.0938    3.7293 H       1  UNL1        0.2106
     14 H          21.1131   69.9152    1.9821 H       1  UNL1        0.2105
     15 N          25.2389   72.7092    2.1785 N.ar    1  UNL1       -0.2551
     16 C          26.3856   72.2086    2.6719 C.ar    1  UNL1        0.3323
     17 N          27.2801   73.0038    3.2882 N.ar    1  UNL1       -0.2743
     18 C          27.0379   74.3240    3.4189 C.ar    1  UNL1        0.2626
     19 C          25.8353   74.8645    2.9033 C.ar    1  UNL1        0.0795
     20 C          24.9584   74.0447    2.2864 C.ar    1  UNL1        0.0869
     21 O          26.6172   71.0202    2.5610 O.2     1  UNL1       -0.2464
     22 O          27.8468   75.0448    3.9762 O.2     1  UNL1       -0.2670
     23 H          28.1013   72.6264    3.6393 H       1  UNL1        0.1734
     24 O          21.6974   73.4637   -4.7864 O.3     1  UNL1       -0.2703
     25 P          20.7602   72.6003   -5.7710 P.3     1  UNL1        0.2208
     26 O          20.0337   73.5841   -6.8189 O.3     1  UNL1       -0.4371
     27 O          21.5884   71.6207   -6.5076 O.2     1  UNL1       -0.5170
     28 O          19.6479   71.8208   -4.9062 O.3     1  UNL1       -0.2865
     29 C          19.3598   70.4322   -5.0792 C.3     1  UNL1        0.2611
     30 C          18.2744   70.2642   -6.1452 C.3     1  UNL1        0.1582
     31 C          16.9907   70.9495   -5.6670 C.3     1  UNL1        0.1625
     32 C          16.5776   70.3522   -4.3190 C.3     1  UNL1        0.1686
     33 C          17.7287   70.5170   -3.3231 C.3     1  UNL1        0.1760
     34 O          15.9503   70.7347   -6.6234 O.3     1  UNL1       -0.3801
     35 O          16.2816   68.9641   -4.4822 O.3     1  UNL1       -0.3794
     36 O          18.8999   69.8839   -3.8422 O.3     1  UNL1       -0.3263
     37 H          15.1067   71.1428   -6.3847 H       1  UNL1        0.2105
     38 H          16.0126   68.5200   -3.6659 H       1  UNL1        0.2105
     39 C          18.5610   70.2229   -8.5647 C.2     1  UNL1        0.2231
     40 C          19.0186   70.8543   -9.8534 C.3     1  UNL1        0.0946
     41 N          18.7201   70.8788   -7.3983 N.am    1  UNL1       -0.2994
     42 O          18.0487   69.1231   -8.5763 O.2     1  UNL1       -0.2751
     43 H          19.1305   71.7577   -7.3885 H       1  UNL1        0.1496
     44 C          17.3465   69.8695   -1.9907 C.3     1  UNL1        0.1693
     45 O          17.1062   68.4749   -2.1896 O.3     1  UNL1       -0.3794
     46 H          16.8584   67.9992   -1.3849 H       1  UNL1        0.2105
@<TRIPOS>BOND
     1    29    30    1
     2    30    41    1
     3    30    31    1
     4    31    34    1
     5    31    32    1
     6    32    35    1
     7    32    33    1
     8    33    36    1
     9    33    44    1
    10    39    40    1
    11    39    42    2
    12    39    41   am
    13    41    43    1
    14    29    28    1
    15    34    37    1
    16    35    38    1
    17    29    36    1
    18    44    45    1
    19    45    46    1
    20    15     6    1
    21    15    16   ar
    22    16    21    2
    23    16    17   ar
    24    17    23    1
    25    17    18   ar
    26    18    19   ar
    27    19    20   ar
    28    15    20   ar
    29    18    22    2
    30     6     7    1
    31     6    11    1
    32     7     9    1
    33     7     8    1
    34     8    13    1
    35     9    10    1
    36     9    12    1
    37    10     5    1
    38    10    11    1
    39    12    14    1
    40     5     4    1
    41     4     1    1
    42     1     2    1
    43     1    24    1
    44     1     3    2
    45    24    25    1
    46    28    25    1
    47    25    26    1
    48    25    27    2
@<TRIPOS>MOLECULE
UD2
 46 48 0 0 0
SMALL
GASTEIGER

@<TRIPOS>ATOM
      1 P          23.0700   71.7181   -2.1618 P.3     1  UNL1        0.2189
      2 O          24.2192   70.9233   -2.9611 O.3     1  UNL1       -0.4371
      3 O          23.4634   73.1365   -2.0119 O.2     1  UNL1       -0.5170
      4 O          21.6866   71.6286   -2.9815 O.3     1  UNL1       -0.3112
      5 C          20.9077   70.4336   -3.0634 C.3     1  UNL1        0.1811
      6 C          18.2318   70.6348   -5.4583 C.3     1  UNL1        0.2383
      7 C          18.0146   69.2764   -4.7445 C.3     1  UNL1        0.1895
      8 O          16.6262   68.9422   -4.6955 O.3     1  UNL1       -0.3779
      9 C          18.5641   69.5630   -3.3256 C.3     1  UNL1        0.1713
     10 C          19.4881   70.7806   -3.5185 C.3     1  UNL1        0.1764
     11 O          19.4881   71.1000   -4.9190 O.3     1  UNL1       -0.3308
     12 O          17.4960   69.8817   -2.4320 O.3     1  UNL1       -0.3794
     13 H          16.4392   68.1002   -4.2588 H       1  UNL1        0.2106
     14 H          16.8511   69.1705   -2.3192 H       1  UNL1        0.2105
     15 N          18.3302   70.4461   -6.9074 N.ar    1  UNL1       -0.2551
     16 C          17.2209   70.5120   -7.6649 C.ar    1  UNL1        0.3323
     17 N          17.2818   70.3423   -8.9989 N.ar    1  UNL1       -0.2743
     18 C          18.4655   70.1038   -9.5994 C.ar    1  UNL1        0.2626
     19 C          19.6414   70.0329   -8.8144 C.ar    1  UNL1        0.0795
     20 C          19.5515   70.2111   -7.4796 C.ar    1  UNL1        0.0869
     21 O          16.1468   70.7265   -7.1369 O.2     1  UNL1       -0.2464
     22 O          18.5220   69.9504  -10.8068 O.2     1  UNL1       -0.2670
     23 H          16.4721   70.3917   -9.5301 H       1  UNL1        0.1734
     24 O          22.8740   71.0583   -0.7060 O.3     1  UNL1       -0.2703
     25 P          21.7091   71.1246    0.4037 P.3     1  UNL1        0.2208
     26 O          20.2824   70.8760   -0.3010 O.3     1  UNL1       -0.4371
     27 O          21.9418   70.0816    1.4266 O.2     1  UNL1       -0.5170
     28 O          21.7168   72.5746    1.1038 O.3     1  UNL1       -0.2865
     29 C          20.7628   72.9669    2.0924 C.3     1  UNL1        0.2611
     30 C          20.3568   74.4244    1.8611 C.3     1  UNL1        0.1582
     31 C          21.5887   75.3203    2.0223 C.3     1  UNL1        0.1625
     32 C          22.1893   75.0988    3.4132 C.3     1  UNL1        0.1686
     33 C          22.5248   73.6149    3.5847 C.3     1  UNL1        0.1760
     34 O          21.2046   76.6898    1.8805 O.3     1  UNL1       -0.3801
     35 O          21.2447   75.4936    4.4098 O.3     1  UNL1       -0.3794
     36 O          21.3427   72.8355    3.3920 O.3     1  UNL1       -0.3263
     37 H          21.9372   77.3147    1.9705 H       1  UNL1        0.2105
     38 H          21.5589   75.3796    5.3177 H       1  UNL1        0.2105
     39 C          20.6300   74.9273   -0.5074 C.2     1  UNL1        0.2231
     40 C          20.0760   75.0800   -1.8996 C.3     1  UNL1        0.0946
     41 N          19.8170   74.5730    0.5072 N.am    1  UNL1       -0.2994
     42 O          21.8091   75.1233   -0.2987 O.2     1  UNL1       -0.2751
     43 H          18.8741   74.4171    0.3410 H       1  UNL1        0.1496
     44 C          23.0701   73.3751    4.9938 C.3     1  UNL1        0.1693
     45 O          21.9877   73.0892    5.8820 O.3     1  UNL1       -0.3794
     46 H          22.2601   72.9262    6.7954 H       1  UNL1        0.2105
@<TRIPOS>BOND
     1    29    30    1
     2    30    41    1
     3    30    31    1
     4    31    34    1
     5    31    32    1
     6    32    35    1
     7    32    33    1
     8    33    36    1
     9    33    44    1
    10    39    40    1
    11    39    42    2
    12    39    41   am
    13    41    43    1
    14    29    28    1
    15    34    37    1
    16    35    38    1
    17    29    36    1
    18    44    45    1
    19    45    46    1
    20    15     6    1
    21    15    16   ar
    22    16    21    2
    23    16    17   ar
    24    17    23    1
    25    17    18   ar
    26    18    19   ar
    27    19    20   ar
    28    15    20   ar
    29    18    22    2
    30     6     7    1
    31     6    11    1
    32     7     9    1
    33     7     8    1
    34     8    13    1
    35     9    10    1
    36     9    12    1
    37    10     5    1
    38    10    11    1
    39    12    14    1
    40     5     4    1
    41     4     1    1
    42     1     2    1
    43     1    24    1
    44     1     3    2
    45    24    25    1
    46    28    25    1
    47    25    26    1
    48    25    27    2
@<TRIPOS>MOLECULE
UD2
 46 48 0 0 0
SMALL
GASTEIGER

@<TRIPOS>ATOM
      1 P          16.9499   69.2383   -3.1099 P.3     1  UNL1        0.2189
      2 O          18.0353   68.0587   -3.2578 O.3     1  UNL1       -0.4371
      3 O          15.8922   69.0671   -4.1301 O.2     1  UNL1       -0.5170
      4 O          16.2928   69.1816   -1.6406 O.3     1  UNL1       -0.3112
      5 C          15.3276   70.1308   -1.1838 C.3     1  UNL1        0.1811
      6 C          12.7383   68.1882    0.3843 C.3     1  UNL1        0.2383
      7 C          12.4019   69.6556    0.7526 C.3     1  UNL1        0.1895
      8 O          10.9916   69.8346    0.8975 O.3     1  UNL1       -0.3779
      9 C          12.9334   70.4300   -0.4783 C.3     1  UNL1        0.1713
     10 C          13.9502   69.4662   -1.1192 C.3     1  UNL1        0.1764
     11 O          14.0111   68.2950   -0.2898 O.3     1  UNL1       -0.3308
     12 O          11.8688   70.7121   -1.3881 O.3     1  UNL1       -0.3794
     13 H          10.7310   70.7365    1.1284 H       1  UNL1        0.2106
     14 H          11.1699   71.2674   -1.0170 H       1  UNL1        0.2105
     15 N          12.8608   67.3684    1.5918 N.ar    1  UNL1       -0.2551
     16 C          12.0653   66.2959    1.7526 C.ar    1  UNL1        0.3323
     17 N          12.1560   65.5248    2.8523 N.ar    1  UNL1       -0.2743
     18 C          13.0538   65.8181    3.8148 C.ar    1  UNL1        0.2626
     19 C          13.8982   66.9435    3.6580 C.ar    1  UNL1        0.0795
     20 C          13.7886   67.6965    2.5434 C.ar    1  UNL1        0.0869
     21 O          11.2513   66.0195    0.8927 O.2     1  UNL1       -0.2464
     22 O          13.1371   65.1207    4.8104 O.2     1  UNL1       -0.2670
     23 H          11.5739   64.7559    2.9529 H       1  UNL1        0.1734
     24 O          17.6725   70.6622   -3.3192 O.3     1  UNL1       -0.2703
     25 P          18.8780   71.4245   -2.5719 P.3     1  UNL1        0.2208
     26 O          18.2873   72.6595   -1.7235 O.3     1  UNL1       -0.4371
     27 O          19.5663   70.4848   -1.6600 O.2     1  UNL1       -0.5170
     28 O          19.9240   71.9755   -3.6651 O.3     1  UNL1       -0.2865
     29 C          20.9841   71.1798   -4.1983 C.3     1  UNL1        0.2611
     30 C          22.3111   71.9269   -4.0445 C.3     1  UNL1        0.1582
     31 C          22.2525   73.2261   -4.8537 C.3     1  UNL1        0.1625
     32 C          21.9409   72.8913   -6.3149 C.3     1  UNL1        0.1686
     33 C          20.6277   72.1069   -6.3812 C.3     1  UNL1        0.1760
     34 O          23.5136   73.8945   -4.7754 O.3     1  UNL1       -0.3801
     35 O          22.9984   72.1000   -6.8597 O.3     1  UNL1       -0.3794
     36 O          20.7389   70.9266   -5.5833 O.3     1  UNL1       -0.3263
     37 H          23.5480   74.7274   -5.2656 H       1  UNL1        0.2105
     38 H          22.8669   71.8497   -7.7849 H       1  UNL1        0.2105
     39 C          23.5293   71.6308   -1.9550 C.2     1  UNL1        0.2231
     40 C          23.7606   71.9524   -0.5018 C.3     1  UNL1        0.0946
     41 N          22.5354   72.2401   -2.6310 N.am    1  UNL1       -0.2994
     42 O          24.2380   70.8226   -2.5178 O.2     1  UNL1       -0.2751
     43 H          21.9679   72.8856   -2.1811 H       1  UNL1        0.1496
     44 C          20.3397   71.7167   -7.8322 C.3     1  UNL1        0.1693
     45 O          18.9582   71.9409   -8.1212 O.3     1  UNL1       -0.3794
     46 H          18.7034   71.7146   -9.0262 H       1  UNL1        0.2105
@<TRIPOS>BOND
     1    29    30    1
     2    30    41    1
     3    30    31    1
     4    31    34    1
     5    31    32    1
     6    32    35    1
     7    32    33    1
     8    33    36    1
     9    33    44    1
    10    39    40    1
    11    39    42    2
    12    39    41   am
    13    41    43    1
    14    29    28    1
    15    34    37    1
    16    35    38    1
    17    29    36    1
    18    44    45    1
    19    45    46    1
    20    15     6    1
    21    15    16   ar
    22    16    21    2
    23    16    17   ar
    24    17    23    1
    25    17    18   ar
    26    18    19   ar
    27    19    20   ar
    28    15    20   ar
    29    18    22    2
    30     6     7    1
    31     6    11    1
    32     7     9    1
    33     7     8    1
    34     8    13    1
    35     9    10    1
    36     9    12    1
    37    10     5    1
    38    10    11    1
    39    12    14    1
    40     5     4    1
    41     4     1    1
    42     1     2    1
    43     1    24    1
    44     1     3    2
    45    24    25    1
    46    28    25    1
    47    25    26    1
    48    25    27    2
@<TRIPOS>MOLECULE
UD2
 46 48 0 0 0
SMALL
GASTEIGER

@<TRIPOS>ATOM
      1 P          22.5125   71.5232   -2.6295 P.3     1  UNL1        0.2189
      2 O          22.5760   73.1184   -2.8357 O.3     1  UNL1       -0.4371
      3 O          23.7770   70.9139   -3.0972 O.2     1  UNL1       -0.5170
      4 O          22.3027   71.1921   -1.0674 O.3     1  UNL1       -0.3112
      5 C          21.3363   71.8602   -0.2543 C.3     1  UNL1        0.1811
      6 C          23.3435   71.7616    2.7286 C.3     1  UNL1        0.2383
      7 C          22.5640   73.0975    2.8274 C.3     1  UNL1        0.1895
      8 O          22.3131   73.4420    4.1913 O.3     1  UNL1       -0.3779
      9 C          21.2444   72.7594    2.0914 C.3     1  UNL1        0.1713
     10 C          21.6015   71.5408    1.2190 C.3     1  UNL1        0.1764
     11 O          22.9979   71.2679    1.4162 O.3     1  UNL1       -0.3308
     12 O          20.2222   72.4207    3.0301 O.3     1  UNL1       -0.3794
     13 H          21.8283   74.2707    4.3051 H       1  UNL1        0.2106
     14 H          19.9990   73.1333    3.6439 H       1  UNL1        0.2105
     15 N          24.7855   71.9972    2.8284 N.ar    1  UNL1       -0.2551
     16 C          25.6409   70.9717    2.6691 C.ar    1  UNL1        0.3323
     17 N          26.9712   71.1592    2.7558 N.ar    1  UNL1       -0.2743
     18 C          27.4687   72.3878    3.0037 C.ar    1  UNL1        0.2626
     19 C          26.5798   73.4766    3.1725 C.ar    1  UNL1        0.0795
     20 C          25.2510   73.2605    3.0762 C.ar    1  UNL1        0.0869
     21 O          25.2065   69.8584    2.4449 O.2     1  UNL1       -0.2464
     22 O          28.6725   72.5590    3.0820 O.2     1  UNL1       -0.2670
     23 H          27.5738   70.4086    2.6395 H       1  UNL1        0.1734
     24 O          21.2813   70.9210   -3.4750 O.3     1  UNL1       -0.2703
     25 P          19.6796   71.0290   -3.3487 P.3     1  UNL1        0.2208
     26 O          19.1631   70.0225   -2.2025 O.3     1  UNL1       -0.4371
     27 O          19.3049   72.4151   -2.9927 O.2     1  UNL1       -0.5170
     28 O          19.0026   70.6340   -4.7553 O.3     1  UNL1       -0.2865
     29 C          18.2846   71.5684   -5.5632 C.3     1  UNL1        0.2611
     30 C          16.8475   71.0785   -5.7565 C.3     1  UNL1        0.1582
     31 C          16.8692   69.7401   -6.5012 C.3     1  UNL1        0.1625
     32 C          17.6049   69.9203   -7.8318 C.3     1  UNL1        0.1686
     33 C          19.0133   70.4549   -7.5584 C.3     1  UNL1        0.1760
     34 O          15.5287   69.3111   -6.7509 O.3     1  UNL1       -0.3801
     35 O          16.8915   70.8491   -8.6501 O.3     1  UNL1       -0.3794
     36 O          18.9224   71.6849   -6.8368 O.3     1  UNL1       -0.3263
     37 H          15.4670   68.4676   -7.2198 H       1  UNL1        0.2105
     38 H          17.3021   71.0124   -9.5107 H       1  UNL1        0.2105
     39 C          16.2189   69.6920   -3.8539 C.2     1  UNL1        0.2231
     40 C          15.5650   69.5088   -2.5095 C.3     1  UNL1        0.0946
     41 N          16.2110   70.9011   -4.4489 N.am    1  UNL1       -0.2994
     42 O          16.7533   68.7506   -4.4020 O.2     1  UNL1       -0.2751
     43 H          15.7830   71.6538   -4.0115 H       1  UNL1        0.1496
     44 C          19.7343   70.6943   -8.8863 C.3     1  UNL1        0.1693
     45 O          20.6755   71.7587   -8.7330 O.3     1  UNL1       -0.3794
     46 H          21.1704   71.9658   -9.5374 H       1  UNL1        0.2105
@<TRIPOS>BOND
     1    29    30    1
     2    30    41    1
     3    30    31    1
     4    31    34    1
     5    31    32    1
     6    32    35    1
     7    32    33    1
     8    33    36    1
     9    33    44    1
    10    39    40    1
    11    39    42    2
    12    39    41   am
    13    41    43    1
    14    29    28    1
    15    34    37    1
    16    35    38    1
    17    29    36    1
    18    44    45    1
    19    45    46    1
    20    15     6    1
    21    15    16   ar
    22    16    21    2
    23    16    17   ar
    24    17    23    1
    25    17    18   ar
    26    18    19   ar
    27    19    20   ar
    28    15    20   ar
    29    18    22    2
    30     6     7    1
    31     6    11    1
    32     7     9    1
    33     7     8    1
    34     8    13    1
    35     9    10    1
    36     9    12    1
    37    10     5    1
    38    10    11    1
    39    12    14    1
    40     5     4    1
    41     4     1    1
    42     1     2    1
    43     1    24    1
    44     1     3    2
    45    24    25    1
    46    28    25    1
    47    25    26    1
    48    25    27    2
@<TRIPOS>MOLECULE
UD2
 46 48 0 0 0
SMALL
GASTEIGER

@<TRIPOS>ATOM
      1 P          23.5208   72.1044   -3.3475 P.3     1  UNL1        0.2189
      2 O          24.4645   72.9819   -4.3123 O.3     1  UNL1       -0.4371
      3 O          24.1771   70.8104   -3.0584 O.2     1  UNL1       -0.5170
      4 O          23.2739   72.9007   -1.9695 O.3     1  UNL1       -0.3112
      5 C          21.9759   73.0902   -1.4032 C.3     1  UNL1        0.1811
      6 C          23.2924   72.0363    1.7737 C.3     1  UNL1        0.2383
      7 C          22.5782   73.3787    2.0738 C.3     1  UNL1        0.1895
      8 O          22.0597   73.3941    3.4051 O.3     1  UNL1       -0.3779
      9 C          21.4309   73.3762    1.0341 C.3     1  UNL1        0.1713
     10 C          21.9040   72.3852   -0.0465 C.3     1  UNL1        0.1764
     11 O          23.2105   71.9268    0.3360 O.3     1  UNL1       -0.3308
     12 O          20.2161   72.9217    1.6328 O.3     1  UNL1       -0.3794
     13 H          21.6043   74.2137    3.6407 H       1  UNL1        0.2106
     14 H          19.9033   73.4768    2.3598 H       1  UNL1        0.2105
     15 N          24.6899   72.0869    2.2089 N.ar    1  UNL1       -0.2551
     16 C          25.4053   70.9507    2.2862 C.ar    1  UNL1        0.3323
     17 N          26.6915   70.9676    2.6832 N.ar    1  UNL1       -0.2743
     18 C          27.2858   72.1332    3.0098 C.ar    1  UNL1        0.2626
     19 C          26.5448   73.3370    2.9320 C.ar    1  UNL1        0.0795
     20 C          25.2583   73.2910    2.5267 C.ar    1  UNL1        0.0869
     21 O          24.8825   69.8924    1.9946 O.2     1  UNL1       -0.2464
     22 O          28.4500   72.1499    3.3689 O.2     1  UNL1       -0.2670
     23 H          27.1926   70.1391    2.7346 H       1  UNL1        0.1734
     24 O          22.1082   71.8398   -4.0740 O.3     1  UNL1       -0.2703
     25 P          21.4367   72.3684   -5.4388 P.3     1  UNL1        0.2208
     26 O          21.1771   73.9541   -5.3295 O.3     1  UNL1       -0.4371
     27 O          22.3449   72.0949   -6.5739 O.2     1  UNL1       -0.5170
     28 O          20.0363   71.6100   -5.6765 O.3     1  UNL1       -0.2865
     29 C          18.9659   72.1724   -6.4376 C.3     1  UNL1        0.2611
     30 C          17.6308   71.8319   -5.7712 C.3     1  UNL1        0.1582
     31 C          17.4471   70.3112   -5.7634 C.3     1  UNL1        0.1625
     32 C          17.5276   69.7906   -7.2011 C.3     1  UNL1        0.1686
     33 C          18.8672   70.2099   -7.8125 C.3     1  UNL1        0.1760
     34 O          16.1698   69.9877   -5.2092 O.3     1  UNL1       -0.3801
     35 O          16.4574   70.3430   -7.9697 O.3     1  UNL1       -0.3794
     36 O          18.9880   71.6328   -7.7608 O.3     1  UNL1       -0.3263
     37 H          15.9862   69.0389   -5.1727 H       1  UNL1        0.2105
     38 H          16.4468   70.0559   -8.8936 H       1  UNL1        0.2105
     39 C          18.1076   71.5625   -3.3968 C.2     1  UNL1        0.2231
     40 C          18.1069   72.0763   -1.9810 C.3     1  UNL1        0.0946
     41 N          17.6295   72.3323   -4.3942 N.am    1  UNL1       -0.2994
     42 O          18.5387   70.4547   -3.6401 O.2     1  UNL1       -0.2751
     43 H          17.2839   73.2177   -4.2001 H       1  UNL1        0.1496
     44 C          18.9307   69.7449   -9.2686 C.3     1  UNL1        0.1693
     45 O          17.9138   70.4053  -10.0251 O.3     1  UNL1       -0.3794
     46 H          17.8949   70.1580  -10.9597 H       1  UNL1        0.2105
@<TRIPOS>BOND
     1    29    30    1
     2    30    41    1
     3    30    31    1
     4    31    34    1
     5    31    32    1
     6    32    35    1
     7    32    33    1
     8    33    36    1
     9    33    44    1
    10    39    40    1
    11    39    42    2
    12    39    41   am
    13    41    43    1
    14    29    28    1
    15    34    37    1
    16    35    38    1
    17    29    36    1
    18    44    45    1
    19    45    46    1
    20    15     6    1
    21    15    16   ar
    22    16    21    2
    23    16    17   ar
    24    17    23    1
    25    17    18   ar
    26    18    19   ar
    27    19    20   ar
    28    15    20   ar
    29    18    22    2
    30     6     7    1
    31     6    11    1
    32     7     9    1
    33     7     8    1
    34     8    13    1
    35     9    10    1
    36     9    12    1
    37    10     5    1
    38    10    11    1
    39    12    14    1
    40     5     4    1
    41     4     1    1
    42     1     2    1
    43     1    24    1
    44     1     3    2
    45    24    25    1
    46    28    25    1
    47    25    26    1
    48    25    27    2
@<TRIPOS>MOLECULE
UD2
 46 48 0 0 0
SMALL
GASTEIGER

@<TRIPOS>ATOM
      1 P          16.1662   70.2480   -3.0194 P.3     1  UNL1        0.2189
      2 O          16.1747   68.9278   -3.9406 O.3     1  UNL1       -0.4371
      3 O          16.1136   71.4503   -3.8799 O.2     1  UNL1       -0.5170
      4 O          14.8765   70.2211   -2.0552 O.3     1  UNL1       -0.3112
      5 C          14.8731   69.5772   -0.7797 C.3     1  UNL1        0.1811
      6 C          12.4305   67.7026    1.0793 C.3     1  UNL1        0.2383
      7 C          11.8861   69.1537    1.0734 C.3     1  UNL1        0.1895
      8 O          10.4576   69.1628    1.1048 O.3     1  UNL1       -0.3779
      9 C          12.4123   69.6930   -0.2792 C.3     1  UNL1        0.1713
     10 C          13.5883   68.7597   -0.6249 C.3     1  UNL1        0.1764
     11 O          13.7290   67.8289    0.4602 O.3     1  UNL1       -0.3308
     12 O          11.3957   69.6088   -1.2793 O.3     1  UNL1       -0.3794
     13 H          10.0695   70.0482    1.1031 H       1  UNL1        0.2106
     14 H          10.6062   70.1312   -1.0837 H       1  UNL1        0.2105
     15 N          12.5586   67.2054    2.4509 N.ar    1  UNL1       -0.2551
     16 C          12.5499   68.0735    3.4781 C.ar    1  UNL1        0.3323
     17 N          12.6662   67.6446    4.7488 N.ar    1  UNL1       -0.2743
     18 C          12.7922   66.3280    5.0118 C.ar    1  UNL1        0.2626
     19 C          12.8019   65.4028    3.9403 C.ar    1  UNL1        0.0795
     20 C          12.6793   65.8605    2.6766 C.ar    1  UNL1        0.0869
     21 O          12.4368   69.2636    3.2557 O.2     1  UNL1       -0.2464
     22 O          12.8971   65.9384    6.1615 O.2     1  UNL1       -0.2670
     23 H          12.6592   68.2841    5.4775 H       1  UNL1        0.1734
     24 O          17.5041   70.2865   -2.1240 O.3     1  UNL1       -0.2703
     25 P          18.8726   71.1322   -2.1947 P.3     1  UNL1        0.2208
     26 O          18.5839   72.6564   -1.7621 O.3     1  UNL1       -0.4371
     27 O          19.8676   70.5390   -1.2747 O.2     1  UNL1       -0.5170
     28 O          19.4459   71.1003   -3.6990 O.3     1  UNL1       -0.2865
     29 C          19.4057   72.2309   -4.5716 C.3     1  UNL1        0.2611
     30 C          19.3405   71.7534   -6.0243 C.3     1  UNL1        0.1582
     31 C          20.6098   70.9599   -6.3494 C.3     1  UNL1        0.1625
     32 C          21.8326   71.8419   -6.0827 C.3     1  UNL1        0.1686
     33 C          21.8018   72.3160   -4.6273 C.3     1  UNL1        0.1760
     34 O          20.5912   70.5726   -7.7253 O.3     1  UNL1       -0.3801
     35 O          21.8049   72.9732   -6.9548 O.3     1  UNL1       -0.3794
     36 O          20.5823   73.0197   -4.3830 O.3     1  UNL1       -0.3263
     37 H          21.3665   70.0647   -8.0009 H       1  UNL1        0.2105
     38 H          22.5518   73.5774   -6.8401 H       1  UNL1        0.2105
     39 C          17.2958   71.1458   -7.2024 C.2     1  UNL1        0.2231
     40 C          16.0891   70.2640   -7.3890 C.3     1  UNL1        0.0946
     41 N          18.1668   70.8952   -6.2051 N.am    1  UNL1       -0.2994
     42 O          17.4842   72.0826   -7.9501 O.2     1  UNL1       -0.2751
     43 H          18.0160   70.1470   -5.6064 H       1  UNL1        0.1496
     44 C          22.9885   73.2464   -4.3690 C.3     1  UNL1        0.1693
     45 O          24.1845   72.4729   -4.2523 O.3     1  UNL1       -0.3794
     46 H          24.9791   72.9987   -4.0874 H       1  UNL1        0.2105
@<TRIPOS>BOND
     1    29    30    1
     2    30    41    1
     3    30    31    1
     4    31    34    1
     5    31    32    1
     6    32    35    1
     7    32    33    1
     8    33    36    1
     9    33    44    1
    10    39    40    1
    11    39    42    2
    12    39    41   am
    13    41    43    1
    14    29    28    1
    15    34    37    1
    16    35    38    1
    17    29    36    1
    18    44    45    1
    19    45    46    1
    20    15     6    1
    21    15    16   ar
    22    16    21    2
    23    16    17   ar
    24    17    23    1
    25    17    18   ar
    26    18    19   ar
    27    19    20   ar
    28    15    20   ar
    29    18    22    2
    30     6     7    1
    31     6    11    1
    32     7     9    1
    33     7     8    1
    34     8    13    1
    35     9    10    1
    36     9    12    1
    37    10     5    1
    38    10    11    1
    39    12    14    1
    40     5     4    1
    41     4     1    1
    42     1     2    1
    43     1    24    1
    44     1     3    2
    45    24    25    1
    46    28    25    1
    47    25    26    1
    48    25    27    2
@<TRIPOS>MOLECULE
UD2
 46 48 0 0 0
SMALL
GASTEIGER

@<TRIPOS>ATOM
      1 P          23.4859   72.1861   -3.2502 P.3     1  UNL1        0.2189
      2 O          24.2723   70.7880   -3.1157 O.3     1  UNL1       -0.4371
      3 O          24.4132   73.2292   -3.7409 O.2     1  UNL1       -0.5170
      4 O          22.2677   72.0185   -4.2903 O.3     1  UNL1       -0.3112
      5 C          22.3749   72.3582   -5.6739 C.3     1  UNL1        0.1811
      6 C          19.3167   70.5549   -6.2503 C.3     1  UNL1        0.2383
      7 C          19.0699   71.9509   -6.8766 C.3     1  UNL1        0.1895
      8 O          18.1786   71.8602   -7.9897 O.3     1  UNL1       -0.3779
      9 C          20.4911   72.3561   -7.3384 C.3     1  UNL1        0.1713
     10 C          21.4281   71.4751   -6.4904 C.3     1  UNL1        0.1764
     11 O          20.6026   70.6977   -5.6085 O.3     1  UNL1       -0.3308
     12 O          20.6627   72.0759   -8.7287 O.3     1  UNL1       -0.3794
     13 H          17.9926   72.7082   -8.4151 H       1  UNL1        0.2106
     14 H          20.0569   72.5598   -9.3060 H       1  UNL1        0.2105
     15 N          18.2799   70.2410   -5.2647 N.ar    1  UNL1       -0.2551
     16 C          17.1300   69.6703   -5.6659 C.ar    1  UNL1        0.3323
     17 N          16.1598   69.3711   -4.7820 N.ar    1  UNL1       -0.2743
     18 C          16.3292   69.6398   -3.4714 C.ar    1  UNL1        0.2626
     19 C          17.5350   70.2395   -3.0350 C.ar    1  UNL1        0.0795
     20 C          18.4924   70.5248   -3.9425 C.ar    1  UNL1        0.0869
     21 O          16.9636   69.4221   -6.8445 O.2     1  UNL1       -0.2464
     22 O          15.4520   69.3692   -2.6703 O.2     1  UNL1       -0.2670
     23 H          15.3363   68.9609   -5.0883 H       1  UNL1        0.1734
     24 O          22.9062   72.6168   -1.8108 O.3     1  UNL1       -0.2703
     25 P          21.5981   73.4220   -1.3279 P.3     1  UNL1        0.2208
     26 O          21.7504   74.9767   -1.7197 O.3     1  UNL1       -0.4371
     27 O          20.4006   72.8617   -1.9916 O.2     1  UNL1       -0.5170
     28 O          21.4416   73.2833    0.2687 O.3     1  UNL1       -0.2865
     29 C          21.8043   74.3225    1.1796 C.3     1  UNL1        0.2611
     30 C          22.4746   73.7108    2.4122 C.3     1  UNL1        0.1582
     31 C          21.4745   72.7955    3.1252 C.3     1  UNL1        0.1625
     32 C          20.2252   73.6044    3.4851 C.3     1  UNL1        0.1686
     33 C          19.6415   74.2202    2.2107 C.3     1  UNL1        0.1760
     34 O          22.0680   72.2775    4.3179 O.3     1  UNL1       -0.3801
     35 O          20.5763   74.6434    4.4008 O.3     1  UNL1       -0.3794
     36 O          20.6320   75.0348    1.5803 O.3     1  UNL1       -0.3263
     37 H          21.4894   71.6877    4.8205 H       1  UNL1        0.2105
     38 H          19.8313   75.1977    4.6722 H       1  UNL1        0.2105
     39 C          23.5248   71.6066    1.7744 C.2     1  UNL1        0.2231
     40 C          24.7254   70.8035    1.3475 C.3     1  UNL1        0.0946
     41 N          23.6430   72.9304    1.9972 N.am    1  UNL1       -0.2994
     42 O          22.4502   71.0617    1.9180 O.2     1  UNL1       -0.2751
     43 H          24.5021   73.3662    1.8835 H       1  UNL1        0.1496
     44 C          18.4273   75.0790    2.5695 C.3     1  UNL1        0.1693
     45 O          18.8405   76.4338    2.7591 O.3     1  UNL1       -0.3794
     46 H          18.1204   77.0366    2.9897 H       1  UNL1        0.2105
@<TRIPOS>BOND
     1    29    30    1
     2    30    41    1
     3    30    31    1
     4    31    34    1
     5    31    32    1
     6    32    35    1
     7    32    33    1
     8    33    36    1
     9    33    44    1
    10    39    40    1
    11    39    42    2
    12    39    41   am
    13    41    43    1
    14    29    28    1
    15    34    37    1
    16    35    38    1
    17    29    36    1
    18    44    45    1
    19    45    46    1
    20    15     6    1
    21    15    16   ar
    22    16    21    2
    23    16    17   ar
    24    17    23    1
    25    17    18   ar
    26    18    19   ar
    27    19    20   ar
    28    15    20   ar
    29    18    22    2
    30     6     7    1
    31     6    11    1
    32     7     9    1
    33     7     8    1
    34     8    13    1
    35     9    10    1
    36     9    12    1
    37    10     5    1
    38    10    11    1
    39    12    14    1
    40     5     4    1
    41     4     1    1
    42     1     2    1
    43     1    24    1
    44     1     3    2
    45    24    25    1
    46    28    25    1
    47    25    26    1
    48    25    27    2
@<TRIPOS>MOLECULE
UD2
 46 48 0 0 0
SMALL
GASTEIGER

@<TRIPOS>ATOM
      1 P          23.2732   72.4219   -2.6337 P.3     1  UNL1        0.2189
      2 O          23.4619   74.0117   -2.4655 O.3     1  UNL1       -0.4371
      3 O          24.2702   71.9054   -3.5970 O.2     1  UNL1       -0.5170
      4 O          23.4820   71.7030   -1.2078 O.3     1  UNL1       -0.3112
      5 C          24.0087   72.3806   -0.0655 C.3     1  UNL1        0.1811
      6 C          22.8266   72.4259    3.3311 C.3     1  UNL1        0.2383
      7 C          21.5479   72.5925    2.4712 C.3     1  UNL1        0.1895
      8 O          20.4153   72.0158    3.1242 O.3     1  UNL1       -0.3779
      9 C          21.9108   71.7996    1.1917 C.3     1  UNL1        0.1713
     10 C          23.4503   71.7418    1.2085 C.3     1  UNL1        0.1764
     11 O          23.8935   72.4784    2.3593 O.3     1  UNL1       -0.3308
     12 O          21.3598   70.4828    1.2477 O.3     1  UNL1       -0.3794
     13 H          19.5909   72.0953    2.6257 H       1  UNL1        0.2106
     14 H          20.3947   70.4613    1.2985 H       1  UNL1        0.2105
     15 N          22.9488   73.5244    4.2920 N.ar    1  UNL1       -0.2551
     16 C          23.2861   74.7527    3.8605 C.ar    1  UNL1        0.3323
     17 N          23.4058   75.7808    4.7212 N.ar    1  UNL1       -0.2743
     18 C          23.1856   75.5925    6.0383 C.ar    1  UNL1        0.2626
     19 C          22.8288   74.3049    6.5062 C.ar    1  UNL1        0.0795
     20 C          22.7118   73.2934    5.6203 C.ar    1  UNL1        0.0869
     21 O          23.4875   74.9372    2.6756 O.2     1  UNL1       -0.2464
     22 O          23.2932   76.5222    6.8184 O.2     1  UNL1       -0.2670
     23 H          23.6511   76.6598    4.3935 H       1  UNL1        0.1734
     24 O          21.7897   72.1119   -3.1781 O.3     1  UNL1       -0.2703
     25 P          20.3768   71.8143   -2.4653 P.3     1  UNL1        0.2208
     26 O          20.5270   70.5440   -1.4867 O.3     1  UNL1       -0.4371
     27 O          19.9625   72.9963   -1.6782 O.2     1  UNL1       -0.5170
     28 O          19.2655   71.4996   -3.5872 O.3     1  UNL1       -0.2865
     29 C          18.9233   70.1733   -3.9934 C.3     1  UNL1        0.2611
     30 C          18.1690   70.2248   -5.3242 C.3     1  UNL1        0.1582
     31 C          16.8640   71.0035   -5.1317 C.3     1  UNL1        0.1625
     32 C          16.0429   70.3370   -4.0245 C.3     1  UNL1        0.1686
     33 C          16.8795   70.2812   -2.7434 C.3     1  UNL1        0.1760
     34 O          16.1182   70.9938   -6.3511 O.3     1  UNL1       -0.3801
     35 O          15.6905   69.0111   -4.4235 O.3     1  UNL1       -0.3794
     36 O          18.0925   69.5704   -2.9991 O.3     1  UNL1       -0.3263
     37 H          15.2782   71.4705   -6.3017 H       1  UNL1        0.2105
     38 H          15.1684   68.5280   -3.7677 H       1  UNL1        0.2105
     39 C          18.9616   70.4873   -7.6134 C.2     1  UNL1        0.2231
     40 C          19.8115   71.1774   -8.6479 C.3     1  UNL1        0.0946
     41 N          18.9961   70.8964   -6.3298 N.am    1  UNL1       -0.2994
     42 O          18.2453   69.5625   -7.9354 O.2     1  UNL1       -0.2751
     43 H          19.5694   71.6351   -6.0718 H       1  UNL1        0.1496
     44 C          16.0882   69.5629   -1.6487 C.3     1  UNL1        0.1693
     45 O          16.5002   68.1961   -1.5810 O.3     1  UNL1       -0.3794
     46 H          16.0389   67.6787   -0.9068 H       1  UNL1        0.2105
@<TRIPOS>BOND
     1    29    30    1
     2    30    41    1
     3    30    31    1
     4    31    34    1
     5    31    32    1
     6    32    35    1
     7    32    33    1
     8    33    36    1
     9    33    44    1
    10    39    40    1
    11    39    42    2
    12    39    41   am
    13    41    43    1
    14    29    28    1
    15    34    37    1
    16    35    38    1
    17    29    36    1
    18    44    45    1
    19    45    46    1
    20    15     6    1
    21    15    16   ar
    22    16    21    2
    23    16    17   ar
    24    17    23    1
    25    17    18   ar
    26    18    19   ar
    27    19    20   ar
    28    15    20   ar
    29    18    22    2
    30     6     7    1
    31     6    11    1
    32     7     9    1
    33     7     8    1
    34     8    13    1
    35     9    10    1
    36     9    12    1
    37    10     5    1
    38    10    11    1
    39    12    14    1
    40     5     4    1
    41     4     1    1
    42     1     2    1
    43     1    24    1
    44     1     3    2
    45    24    25    1
    46    28    25    1
    47    25    26    1
    48    25    27    2
@<TRIPOS>MOLECULE
UD2
 46 48 0 0 0
SMALL
GASTEIGER

@<TRIPOS>ATOM
      1 P          16.4278   69.6907   -2.4882 P.3     1  UNL1        0.2189
      2 O          16.2295   69.0727   -3.9614 O.3     1  UNL1       -0.4371
      3 O          15.8328   71.0443   -2.4361 O.2     1  UNL1       -0.5170
      4 O          15.7017   68.7433   -1.4069 O.3     1  UNL1       -0.3112
      5 C          14.7835   69.2395   -0.4312 C.3     1  UNL1        0.1811
      6 C          12.9190   67.4702    2.0847 C.3     1  UNL1        0.2383
      7 C          11.8668   68.3566    1.3712 C.3     1  UNL1        0.1895
      8 O          10.5815   67.7323    1.3831 O.3     1  UNL1       -0.3779
      9 C          12.4298   68.4344   -0.0691 C.3     1  UNL1        0.1713
     10 C          13.9222   68.0869    0.0908 C.3     1  UNL1        0.1764
     11 O          14.1677   67.8890    1.4922 O.3     1  UNL1       -0.3308
     12 O          11.7808   67.4796   -0.9106 O.3     1  UNL1       -0.3794
     13 H           9.8891   68.2487    0.9489 H       1  UNL1        0.2106
     14 H          10.8279   67.6158   -0.9992 H       1  UNL1        0.2105
     15 N          12.9192   67.7288    3.5263 N.ar    1  UNL1       -0.2551
     16 C          12.5106   68.9238    3.9890 C.ar    1  UNL1        0.3323
     17 N          12.5005   69.1891    5.3087 N.ar    1  UNL1       -0.2743
     18 C          12.9013   68.2525    6.1924 C.ar    1  UNL1        0.2626
     19 C          13.3328   66.9899    5.7193 C.ar    1  UNL1        0.0795
     20 C          13.3286   66.7499    4.3912 C.ar    1  UNL1        0.0869
     21 O          12.1464   69.7776    3.2037 O.2     1  UNL1       -0.2464
     22 O          12.8922   68.4912    7.3871 O.2     1  UNL1       -0.2670
     23 H          12.2041   70.0563    5.6253 H       1  UNL1        0.1734
     24 O          17.9998   69.7816   -2.1512 O.3     1  UNL1       -0.2703
     25 P          19.0558   70.9941   -2.0626 P.3     1  UNL1        0.2208
     26 O          18.3308   72.2924   -1.4440 O.3     1  UNL1       -0.4371
     27 O          20.1871   70.6010   -1.1944 O.2     1  UNL1       -0.5170
     28 O          19.6042   71.3368   -3.5372 O.3     1  UNL1       -0.2865
     29 C          20.6423   70.5902   -4.1747 C.3     1  UNL1        0.2611
     30 C          21.9458   71.3916   -4.1363 C.3     1  UNL1        0.1582
     31 C          21.7584   72.6927   -4.9227 C.3     1  UNL1        0.1625
     32 C          21.3266   72.3549   -6.3524 C.3     1  UNL1        0.1686
     33 C          20.0467   71.5162   -6.3052 C.3     1  UNL1        0.1760
     34 O          22.9926   73.4132   -4.9543 O.3     1  UNL1       -0.3801
     35 O          22.3610   71.6127   -7.0009 O.3     1  UNL1       -0.3794
     36 O          20.2803   70.3363   -5.5336 O.3     1  UNL1       -0.3263
     37 H          22.9468   74.2501   -5.4366 H       1  UNL1        0.2105
     38 H          22.1546   71.3633   -7.9126 H       1  UNL1        0.2105
     39 C          23.4835   71.3368   -2.2469 C.2     1  UNL1        0.2231
     40 C          23.8353   71.6583   -0.8180 C.3     1  UNL1        0.0946
     41 N          22.2871   71.7045   -2.7463 N.am    1  UNL1       -0.2994
     42 O          24.2775   70.7464   -2.9491 O.2     1  UNL1       -0.2751
     43 H          21.6516   72.1757   -2.1849 H       1  UNL1        0.1496
     44 C          19.6416   71.1240   -7.7274 C.3     1  UNL1        0.1693
     45 O          20.4041   69.9897   -8.1450 O.3     1  UNL1       -0.3794
     46 H          20.1994   69.6852   -9.0396 H       1  UNL1        0.2105
@<TRIPOS>BOND
     1    29    30    1
     2    30    41    1
     3    30    31    1
     4    31    34    1
     5    31    32    1
     6    32    35    1
     7    32    33    1
     8    33    36    1
     9    33    44    1
    10    39    40    1
    11    39    42    2
    12    39    41   am
    13    41    43    1
    14    29    28    1
    15    34    37    1
    16    35    38    1
    17    29    36    1
    18    44    45    1
    19    45    46    1
    20    15     6    1
    21    15    16   ar
    22    16    21    2
    23    16    17   ar
    24    17    23    1
    25    17    18   ar
    26    18    19   ar
    27    19    20   ar
    28    15    20   ar
    29    18    22    2
    30     6     7    1
    31     6    11    1
    32     7     9    1
    33     7     8    1
    34     8    13    1
    35     9    10    1
    36     9    12    1
    37    10     5    1
    38    10    11    1
    39    12    14    1
    40     5     4    1
    41     4     1    1
    42     1     2    1
    43     1    24    1
    44     1     3    2
    45    24    25    1
    46    28    25    1
    47    25    26    1
    48    25    27    2
@<TRIPOS>MOLECULE
UD2
 46 48 0 0 0
SMALL
GASTEIGER

@<TRIPOS>ATOM
      1 P          23.4605   72.0192   -3.2376 P.3     1  UNL1        0.2189
      2 O          24.4454   72.9982   -4.0518 O.3     1  UNL1       -0.4371
      3 O          24.0381   70.6577   -3.1995 O.2     1  UNL1       -0.5170
      4 O          23.2807   72.5683   -1.7343 O.3     1  UNL1       -0.3112
      5 C          22.8242   71.7484   -0.6569 C.3     1  UNL1        0.1811
      6 C          24.5741   73.0335    2.2108 C.3     1  UNL1        0.2383
      7 C          24.6607   74.1695    1.1600 C.3     1  UNL1        0.1895
      8 O          24.6990   75.4492    1.7944 O.3     1  UNL1       -0.3779
      9 C          23.3418   73.9836    0.3705 C.3     1  UNL1        0.1713
     10 C          22.9337   72.5259    0.6571 C.3     1  UNL1        0.1764
     11 O          23.9582   71.9491    1.4824 O.3     1  UNL1       -0.3308
     12 O          22.3430   74.8863    0.8481 O.3     1  UNL1       -0.3794
     13 H          24.7540   76.1924    1.1785 H       1  UNL1        0.2106
     14 H          22.5742   75.8194    0.7467 H       1  UNL1        0.2105
     15 N          25.9116   72.6528    2.6703 N.ar    1  UNL1       -0.2551
     16 C          26.4279   71.4651    2.3075 C.ar    1  UNL1        0.3323
     17 N          27.6545   71.0892    2.7153 N.ar    1  UNL1       -0.2743
     18 C          28.3893   71.9054    3.4980 C.ar    1  UNL1        0.2626
     19 C          27.8585   73.1590    3.8867 C.ar    1  UNL1        0.0795
     20 C          26.6278   73.5118    3.4597 C.ar    1  UNL1        0.0869
     21 O          25.7767   70.7191    1.6019 O.2     1  UNL1       -0.2464
     22 O          29.4998   71.5666    3.8675 O.2     1  UNL1       -0.2670
     23 H          28.0112   70.2289    2.4455 H       1  UNL1        0.1734
     24 O          22.0254   71.9736   -3.9667 O.3     1  UNL1       -0.2703
     25 P          20.6976   72.8803   -3.8789 P.3     1  UNL1        0.2208
     26 O          20.8308   73.9081   -2.6461 O.3     1  UNL1       -0.4371
     27 O          20.5342   73.6396   -5.1379 O.2     1  UNL1       -0.5170
     28 O          19.4152   71.9333   -3.6524 O.3     1  UNL1       -0.2865
     29 C          19.4908   70.5066   -3.6557 C.3     1  UNL1        0.2611
     30 C          19.2273   69.9839   -5.0699 C.3     1  UNL1        0.1582
     31 C          17.8082   70.3753   -5.4934 C.3     1  UNL1        0.1625
     32 C          16.8108   69.8188   -4.4736 C.3     1  UNL1        0.1686
     33 C          17.1676   70.3481   -3.0820 C.3     1  UNL1        0.1760
     34 O          17.5272   69.8283   -6.7837 O.3     1  UNL1       -0.3801
     35 O          16.8745   68.3915   -4.4731 O.3     1  UNL1       -0.3794
     36 O          18.5097   69.9759   -2.7623 O.3     1  UNL1       -0.3263
     37 H          16.6434   70.0379   -7.1154 H       1  UNL1        0.2105
     38 H          16.2679   67.9703   -3.8481 H       1  UNL1        0.2105
     39 C          19.7893   71.0173   -7.2039 C.2     1  UNL1        0.2231
     40 C          20.7840   71.6240   -8.1584 C.3     1  UNL1        0.0946
     41 N          20.1955   70.5737   -5.9979 N.am    1  UNL1       -0.2994
     42 O          18.6214   70.9275   -7.5204 O.2     1  UNL1       -0.2751
     43 H          21.1293   70.6443   -5.7448 H       1  UNL1        0.1496
     44 C          16.2119   69.7493   -2.0484 C.3     1  UNL1        0.1693
     45 O          16.6814   68.4576   -1.6565 O.3     1  UNL1       -0.3794
     46 H          16.1227   68.0175   -1.0013 H       1  UNL1        0.2105
@<TRIPOS>BOND
     1    29    30    1
     2    30    41    1
     3    30    31    1
     4    31    34    1
     5    31    32    1
     6    32    35    1
     7    32    33    1
     8    33    36    1
     9    33    44    1
    10    39    40    1
    11    39    42    2
    12    39    41   am
    13    41    43    1
    14    29    28    1
    15    34    37    1
    16    35    38    1
    17    29    36    1
    18    44    45    1
    19    45    46    1
    20    15     6    1
    21    15    16   ar
    22    16    21    2
    23    16    17   ar
    24    17    23    1
    25    17    18   ar
    26    18    19   ar
    27    19    20   ar
    28    15    20   ar
    29    18    22    2
    30     6     7    1
    31     6    11    1
    32     7     9    1
    33     7     8    1
    34     8    13    1
    35     9    10    1
    36     9    12    1
    37    10     5    1
    38    10    11    1
    39    12    14    1
    40     5     4    1
    41     4     1    1
    42     1     2    1
    43     1    24    1
    44     1     3    2
    45    24    25    1
    46    28    25    1
    47    25    26    1
    48    25    27    2
@<TRIPOS>MOLECULE
UD2
 46 48 0 0 0
SMALL
GASTEIGER

@<TRIPOS>ATOM
      1 P          16.1280   69.8074   -2.8556 P.3     1  UNL1        0.2189
      2 O          16.1527   68.8018   -4.1124 O.3     1  UNL1       -0.4371
      3 O          15.6136   71.1256   -3.2878 O.2     1  UNL1       -0.5170
      4 O          15.1709   69.2078   -1.7075 O.3     1  UNL1       -0.3112
      5 C          14.5561   70.0201   -0.7057 C.3     1  UNL1        0.1811
      6 C          11.9383   68.2265    0.9875 C.3     1  UNL1        0.2383
      7 C          11.9241   69.6363    1.6311 C.3     1  UNL1        0.1895
      8 O          10.6061   69.9907    2.0540 O.3     1  UNL1       -0.3779
      9 C          12.3880   70.5342    0.4580 C.3     1  UNL1        0.1713
     10 C          13.1102   69.5638   -0.4961 C.3     1  UNL1        0.1764
     11 O          13.0916   68.2658    0.1191 O.3     1  UNL1       -0.3308
     12 O          11.2625   71.1289   -0.1903 O.3     1  UNL1       -0.3794
     13 H          10.5457   70.8643    2.4637 H       1  UNL1        0.2106
     14 H          10.7368   71.7042    0.3816 H       1  UNL1        0.2105
     15 N          12.0990   67.1930    2.0127 N.ar    1  UNL1       -0.2551
     16 C          13.3319   66.7736    2.3487 C.ar    1  UNL1        0.3323
     17 N          13.5091   65.8251    3.2873 N.ar    1  UNL1       -0.2743
     18 C          12.4448   65.2791    3.9100 C.ar    1  UNL1        0.2626
     19 C          11.1413   65.7119    3.5669 C.ar    1  UNL1        0.0795
     20 C          10.9933   66.6674    2.6253 C.ar    1  UNL1        0.0869
     21 O          14.3007   67.2572    1.7956 O.2     1  UNL1       -0.2464
     22 O          12.6039   64.4208    4.7600 O.2     1  UNL1       -0.2670
     23 H          14.4049   65.5333    3.5167 H       1  UNL1        0.1734
     24 O          17.6203   69.9774   -2.2746 O.3     1  UNL1       -0.2703
     25 P          18.7950   71.0536   -2.5084 P.3     1  UNL1        0.2208
     26 O          18.5421   72.3363   -1.5679 O.3     1  UNL1       -0.4371
     27 O          20.0988   70.4428   -2.1684 O.2     1  UNL1       -0.5170
     28 O          18.8030   71.5125   -4.0518 O.3     1  UNL1       -0.2865
     29 C          19.5640   70.8434   -5.0589 C.3     1  UNL1        0.2611
     30 C          20.3993   71.8663   -5.8326 C.3     1  UNL1        0.1582
     31 C          19.4608   72.8514   -6.5364 C.3     1  UNL1        0.1625
     32 C          18.5090   72.0711   -7.4473 C.3     1  UNL1        0.1686
     33 C          17.7464   71.0400   -6.6111 C.3     1  UNL1        0.1760
     34 O          20.2300   73.7659   -7.3207 O.3     1  UNL1       -0.3801
     35 O          19.2601   71.4024   -8.4622 O.3     1  UNL1       -0.3794
     36 O          18.6781   70.1747   -5.9591 O.3     1  UNL1       -0.3263
     37 H          19.6987   74.4204   -7.7947 H       1  UNL1        0.2105
     38 H          18.7198   70.8863   -9.0767 H       1  UNL1        0.2105
     39 C          22.5684   72.7754   -5.1953 C.2     1  UNL1        0.2231
     40 C          23.4595   73.5244   -4.2395 C.3     1  UNL1        0.0946
     41 N          21.2655   72.5948   -4.9023 N.am    1  UNL1       -0.2994
     42 O          23.0234   72.3341   -6.2299 O.2     1  UNL1       -0.2751
     43 H          20.9015   72.9467   -4.0748 H       1  UNL1        0.1496
     44 C          16.8368   70.2156   -7.5239 C.3     1  UNL1        0.1693
     45 O          16.4513   71.0043   -8.6516 O.3     1  UNL1       -0.3794
     46 H          15.8723   70.5443   -9.2746 H       1  UNL1        0.2105
@<TRIPOS>BOND
     1    29    30    1
     2    30    41    1
     3    30    31    1
     4    31    34    1
     5    31    32    1
     6    32    35    1
     7    32    33    1
     8    33    36    1
     9    33    44    1
    10    39    40    1
    11    39    42    2
    12    39    41   am
    13    41    43    1
    14    29    28    1
    15    34    37    1
    16    35    38    1
    17    29    36    1
    18    44    45    1
    19    45    46    1
    20    15     6    1
    21    15    16   ar
    22    16    21    2
    23    16    17   ar
    24    17    23    1
    25    17    18   ar
    26    18    19   ar
    27    19    20   ar
    28    15    20   ar
    29    18    22    2
    30     6     7    1
    31     6    11    1
    32     7     9    1
    33     7     8    1
    34     8    13    1
    35     9    10    1
    36     9    12    1
    37    10     5    1
    38    10    11    1
    39    12    14    1
    40     5     4    1
    41     4     1    1
    42     1     2    1
    43     1    24    1
    44     1     3    2
    45    24    25    1
    46    28    25    1
    47    25    26    1
    48    25    27    2
@<TRIPOS>MOLECULE
UD2
 46 48 0 0 0
SMALL
GASTEIGER

@<TRIPOS>ATOM
      1 P          23.0789   72.7906   -3.3839 P.3     1  UNL1        0.2189
      2 O          23.1511   74.3965   -3.2983 O.3     1  UNL1       -0.4371
      3 O          24.2155   72.2871   -4.1861 O.2     1  UNL1       -0.5170
      4 O          23.1532   72.1704   -1.8995 O.3     1  UNL1       -0.3112
      5 C          22.9401   72.9488   -0.7204 C.3     1  UNL1        0.1811
      6 C          24.3648   72.6774    2.5709 C.3     1  UNL1        0.2383
      7 C          23.9108   71.2370    2.2228 C.3     1  UNL1        0.1895
      8 O          24.7556   70.2703    2.8502 O.3     1  UNL1       -0.3779
      9 C          24.0822   71.2048    0.6843 C.3     1  UNL1        0.1713
     10 C          24.0749   72.6896    0.2735 C.3     1  UNL1        0.1764
     11 O          23.8661   73.4625    1.4662 O.3     1  UNL1       -0.3308
     12 O          25.3253   70.5944    0.3335 O.3     1  UNL1       -0.3794
     13 H          24.5116   69.3538    2.6630 H       1  UNL1        0.2106
     14 H          25.4078   69.6751    0.6208 H       1  UNL1        0.2105
     15 N          23.7621   73.1179    3.8310 N.ar    1  UNL1       -0.2551
     16 C          22.5441   72.6671    4.1805 C.ar    1  UNL1        0.3323
     17 N          21.9660   73.0554    5.3326 N.ar    1  UNL1       -0.2743
     18 C          22.6058   73.9070    6.1597 C.ar    1  UNL1        0.2626
     19 C          23.8888   74.3886    5.8047 C.ar    1  UNL1        0.0795
     20 C          24.4463   73.9794    4.6457 C.ar    1  UNL1        0.0869
     21 O          21.9557   71.8986    3.4445 O.2     1  UNL1       -0.2464
     22 O          22.0838   74.2588    7.2029 O.2     1  UNL1       -0.2670
     23 H          21.0868   72.7217    5.5688 H       1  UNL1        0.1734
     24 O          21.6945   72.3516   -4.0795 O.3     1  UNL1       -0.2703
     25 P          20.2246   72.0029   -3.5219 P.3     1  UNL1        0.2208
     26 O          20.2507   70.5600   -2.8069 O.3     1  UNL1       -0.4371
     27 O          19.8119   73.0311   -2.5417 O.2     1  UNL1       -0.5170
     28 O          19.1786   71.9770   -4.7458 O.3     1  UNL1       -0.2865
     29 C          19.4090   71.2457   -5.9514 C.3     1  UNL1        0.2611
     30 C          18.9989   72.0997   -7.1536 C.3     1  UNL1        0.1582
     31 C          17.4986   72.3971   -7.0695 C.3     1  UNL1        0.1625
     32 C          16.7296   71.0746   -7.0076 C.3     1  UNL1        0.1686
     33 C          17.2273   70.2600   -5.8106 C.3     1  UNL1        0.1760
     34 O          17.0924   73.1321   -8.2263 O.3     1  UNL1       -0.3801
     35 O          16.9488   70.3377   -8.2118 O.3     1  UNL1       -0.3794
     36 O          18.6345   70.0449   -5.9350 O.3     1  UNL1       -0.3263
     37 H          16.1517   73.3560   -8.2392 H       1  UNL1        0.2105
     38 H          16.4908   69.4860   -8.2414 H       1  UNL1        0.2105
     39 C          19.2404   74.4388   -6.5150 C.2     1  UNL1        0.2231
     40 C          20.0111   75.7327   -6.4991 C.3     1  UNL1        0.0946
     41 N          19.7492   73.3580   -7.1387 N.am    1  UNL1       -0.2994
     42 O          18.1605   74.3690   -5.9662 O.2     1  UNL1       -0.2751
     43 H          20.6121   73.4136   -7.5785 H       1  UNL1        0.1496
     44 C          16.5058   68.9114   -5.7764 C.3     1  UNL1        0.1693
     45 O          15.7349   68.8131   -4.5771 O.3     1  UNL1       -0.3794
     46 H          15.2494   67.9816   -4.4880 H       1  UNL1        0.2105
@<TRIPOS>BOND
     1    29    30    1
     2    30    41    1
     3    30    31    1
     4    31    34    1
     5    31    32    1
     6    32    35    1
     7    32    33    1
     8    33    36    1
     9    33    44    1
    10    39    40    1
    11    39    42    2
    12    39    41   am
    13    41    43    1
    14    29    28    1
    15    34    37    1
    16    35    38    1
    17    29    36    1
    18    44    45    1
    19    45    46    1
    20    15     6    1
    21    15    16   ar
    22    16    21    2
    23    16    17   ar
    24    17    23    1
    25    17    18   ar
    26    18    19   ar
    27    19    20   ar
    28    15    20   ar
    29    18    22    2
    30     6     7    1
    31     6    11    1
    32     7     9    1
    33     7     8    1
    34     8    13    1
    35     9    10    1
    36     9    12    1
    37    10     5    1
    38    10    11    1
    39    12    14    1
    40     5     4    1
    41     4     1    1
    42     1     2    1
    43     1    24    1
    44     1     3    2
    45    24    25    1
    46    28    25    1
    47    25    26    1
    48    25    27    2
