@<TRIPOS>MOLECULE
UD2
 46 48 0 0 0
SMALL
GASTEIGER

@<TRIPOS>ATOM
      1 P          21.0005   71.5754   -2.5715 P.3     1  UNL1        0.2189
      2 O          22.1775   70.6215   -3.1158 O.3     1  UNL1       -0.4371
      3 O          21.2685   72.9721   -2.9791 O.2     1  UNL1       -0.5170
      4 O          19.5927   71.0965   -3.1899 O.3     1  UNL1       -0.3112
      5 C          18.3736   71.1048   -2.4448 C.3     1  UNL1        0.1811
      6 C          16.8598   70.5611   -5.6619 C.3     1  UNL1        0.2383
      7 C          16.9525   69.1485   -5.0311 C.3     1  UNL1        0.1895
      8 O          15.8835   68.3161   -5.4849 O.3     1  UNL1       -0.3779
      9 C          16.8095   69.4568   -3.5205 C.3     1  UNL1        0.1713
     10 C          17.1900   70.9450   -3.4022 C.3     1  UNL1        0.1764
     11 O          17.5585   71.3980   -4.7147 O.3     1  UNL1       -0.3308
     12 O          15.4619   69.2492   -3.0943 O.3     1  UNL1       -0.3794
     13 H          15.8983   67.4216   -5.1184 H       1  UNL1        0.2106
     14 H          15.1500   68.3406   -3.2021 H       1  UNL1        0.2105
     15 N          17.5268   70.5887   -6.9655 N.ar    1  UNL1       -0.2551
     16 C          16.7959   70.4915   -8.0902 C.ar    1  UNL1        0.3323
     17 N          17.3825   70.5138   -9.3017 N.ar    1  UNL1       -0.2743
     18 C          18.7214   70.6368   -9.4054 C.ar    1  UNL1        0.2626
     19 C          19.5029   70.7412   -8.2297 C.ar    1  UNL1        0.0795
     20 C          18.8880   70.7202   -7.0284 C.ar    1  UNL1        0.0869
     21 O          15.5877   70.3803   -8.0119 O.2     1  UNL1       -0.2464
     22 O          19.2534   70.6576  -10.5013 O.2     1  UNL1       -0.2670
     23 H          16.8407   70.4414  -10.1026 H       1  UNL1        0.1734
     24 O          20.9378   71.4874   -0.9648 O.3     1  UNL1       -0.2703
     25 P          22.0370   71.2358    0.1848 P.3     1  UNL1        0.2208
     26 O          21.6507   69.9113    1.0154 O.3     1  UNL1       -0.4371
     27 O          23.3681   71.0576   -0.4356 O.2     1  UNL1       -0.5170
     28 O          22.0730   72.5019    1.1790 O.3     1  UNL1       -0.2865
     29 C          22.2353   72.3769    2.5930 C.3     1  UNL1        0.2611
     30 C          21.9766   73.7305    3.2589 C.3     1  UNL1        0.1582
     31 C          23.0130   74.7419    2.7594 C.3     1  UNL1        0.1625
     32 C          24.4167   74.2075    3.0568 C.3     1  UNL1        0.1686
     33 C          24.5813   72.8351    2.3985 C.3     1  UNL1        0.1760
     34 O          22.8246   75.9895    3.4312 O.3     1  UNL1       -0.3801
     35 O          24.5914   74.0842    4.4695 O.3     1  UNL1       -0.3794
     36 O          23.5684   71.9514    2.8832 O.3     1  UNL1       -0.3263
     37 H          23.4478   76.6784    3.1625 H       1  UNL1        0.2105
     38 H          25.4605   73.7493    4.7312 H       1  UNL1        0.2105
     39 C          19.7355   74.4518    3.8872 C.2     1  UNL1        0.2231
     40 C          18.3524   74.9313    3.5328 C.3     1  UNL1        0.0946
     41 N          20.6314   74.1967    2.9133 N.am    1  UNL1       -0.2994
     42 O          20.0438   74.2949    5.0502 O.2     1  UNL1       -0.2751
     43 H          20.3850   74.3211    1.9833 H       1  UNL1        0.1496
     44 C          25.9602   72.2677    2.7408 C.3     1  UNL1        0.1693
     45 O          26.0145   70.8889    2.3688 O.3     1  UNL1       -0.3794
     46 H          26.8619   70.4631    2.5574 H       1  UNL1        0.2105
@<TRIPOS>BOND
     1    29    30    1
     2    30    41    1
     3    30    31    1
     4    31    34    1
     5    31    32    1
     6    32    35    1
     7    32    33    1
     8    33    36    1
     9    33    44    1
    10    39    40    1
    11    39    42    2
    12    39    41   am
    13    41    43    1
    14    29    28    1
    15    34    37    1
    16    35    38    1
    17    29    36    1
    18    44    45    1
    19    45    46    1
    20    15     6    1
    21    15    16   ar
    22    16    21    2
    23    16    17   ar
    24    17    23    1
    25    17    18   ar
    26    18    19   ar
    27    19    20   ar
    28    15    20   ar
    29    18    22    2
    30     6     7    1
    31     6    11    1
    32     7     9    1
    33     7     8    1
    34     8    13    1
    35     9    10    1
    36     9    12    1
    37    10     5    1
    38    10    11    1
    39    12    14    1
    40     5     4    1
    41     4     1    1
    42     1     2    1
    43     1    24    1
    44     1     3    2
    45    24    25    1
    46    28    25    1
    47    25    26    1
    48    25    27    2
@<TRIPOS>MOLECULE
UD2
 46 48 0 0 0
SMALL
GASTEIGER

@<TRIPOS>ATOM
      1 P          21.0705   71.9434   -2.2423 P.3     1  UNL1        0.2189
      2 O          21.7713   70.5756   -2.7214 O.3     1  UNL1       -0.4371
      3 O          21.6162   73.0770   -3.0208 O.2     1  UNL1       -0.5170
      4 O          19.4809   71.8440   -2.4812 O.3     1  UNL1       -0.3112
      5 C          18.7555   70.6170   -2.3832 C.3     1  UNL1        0.1811
      6 C          17.0639   70.5033   -5.5553 C.3     1  UNL1        0.2383
      7 C          16.9969   69.0484   -5.0256 C.3     1  UNL1        0.1895
      8 O          15.8128   68.3928   -5.4837 O.3     1  UNL1       -0.3779
      9 C          16.9520   69.2620   -3.4927 C.3     1  UNL1        0.1713
     10 C          17.5260   70.6777   -3.2929 C.3     1  UNL1        0.1764
     11 O          17.9001   71.1744   -4.5878 O.3     1  UNL1       -0.3308
     12 O          15.6059   69.1962   -3.0190 O.3     1  UNL1       -0.3794
     13 H          15.7257   67.4794   -5.1791 H       1  UNL1        0.2106
     14 H          15.1753   68.3444   -3.1727 H       1  UNL1        0.2105
     15 N          17.6793   70.5408   -6.8838 N.ar    1  UNL1       -0.2551
     16 C          16.9046   70.4542   -7.9798 C.ar    1  UNL1        0.3323
     17 N          17.4431   70.4857   -9.2131 N.ar    1  UNL1       -0.2743
     18 C          18.7772   70.6074   -9.3683 C.ar    1  UNL1        0.2626
     19 C          19.6045   70.7005   -8.2234 C.ar    1  UNL1        0.0795
     20 C          19.0372   70.6705   -6.9991 C.ar    1  UNL1        0.0869
     21 O          15.7001   70.3444   -7.8549 O.2     1  UNL1       -0.2464
     22 O          19.2658   70.6364  -10.4841 O.2     1  UNL1       -0.2670
     23 H          16.8702   70.4209   -9.9927 H       1  UNL1        0.1734
     24 O          21.3636   72.1770   -0.6762 O.3     1  UNL1       -0.2703
     25 P          22.2407   71.3961    0.4256 P.3     1  UNL1        0.2208
     26 O          21.4604   70.0648    0.8868 O.3     1  UNL1       -0.4371
     27 O          23.5481   71.0237   -0.1578 O.2     1  UNL1       -0.5170
     28 O          22.4739   72.3509    1.7009 O.3     1  UNL1       -0.2865
     29 C          23.1010   73.6315    1.6102 C.3     1  UNL1        0.2611
     30 C          24.0097   73.8429    2.8236 C.3     1  UNL1        0.1582
     31 C          23.1580   73.8311    4.0967 C.3     1  UNL1        0.1625
     32 C          22.0779   74.9106    3.9855 C.3     1  UNL1        0.1686
     33 C          21.2433   74.6580    2.7270 C.3     1  UNL1        0.1760
     34 O          23.9881   74.1010    5.2287 O.3     1  UNL1       -0.3801
     35 O          22.6947   76.1965    3.9000 O.3     1  UNL1       -0.3794
     36 O          22.0997   74.6508    1.5830 O.3     1  UNL1       -0.3263
     37 H          23.5135   74.1081    6.0712 H       1  UNL1        0.2105
     38 H          22.0681   76.9299    3.8263 H       1  UNL1        0.2105
     39 C          26.3146   73.0587    2.9250 C.2     1  UNL1        0.2231
     40 C          27.3332   71.9511    2.9904 C.3     1  UNL1        0.0946
     41 N          24.9999   72.7649    2.8869 N.am    1  UNL1       -0.2994
     42 O          26.6774   74.2164    2.9065 O.2     1  UNL1       -0.2751
     43 H          24.7095   71.8395    2.9007 H       1  UNL1        0.1496
     44 C          20.1997   75.7664    2.5764 C.3     1  UNL1        0.1693
     45 O          19.8113   76.2348    3.8695 O.3     1  UNL1       -0.3794
     46 H          19.1501   76.9402    3.8507 H       1  UNL1        0.2105
@<TRIPOS>BOND
     1    29    30    1
     2    30    41    1
     3    30    31    1
     4    31    34    1
     5    31    32    1
     6    32    35    1
     7    32    33    1
     8    33    36    1
     9    33    44    1
    10    39    40    1
    11    39    42    2
    12    39    41   am
    13    41    43    1
    14    29    28    1
    15    34    37    1
    16    35    38    1
    17    29    36    1
    18    44    45    1
    19    45    46    1
    20    15     6    1
    21    15    16   ar
    22    16    21    2
    23    16    17   ar
    24    17    23    1
    25    17    18   ar
    26    18    19   ar
    27    19    20   ar
    28    15    20   ar
    29    18    22    2
    30     6     7    1
    31     6    11    1
    32     7     9    1
    33     7     8    1
    34     8    13    1
    35     9    10    1
    36     9    12    1
    37    10     5    1
    38    10    11    1
    39    12    14    1
    40     5     4    1
    41     4     1    1
    42     1     2    1
    43     1    24    1
    44     1     3    2
    45    24    25    1
    46    28    25    1
    47    25    26    1
    48    25    27    2
@<TRIPOS>MOLECULE
UD2
 46 48 0 0 0
SMALL
GASTEIGER

@<TRIPOS>ATOM
      1 P          20.6658   70.7060   -3.1406 P.3     1  UNL1        0.2189
      2 O          20.4008   70.2743   -1.6126 O.3     1  UNL1       -0.4371
      3 O          20.4098   69.5527   -4.0312 O.2     1  UNL1       -0.5170
      4 O          19.6804   71.9174   -3.5345 O.3     1  UNL1       -0.3112
      5 C          18.4487   72.1694   -2.8557 C.3     1  UNL1        0.1811
      6 C          16.9778   71.0836   -5.9531 C.3     1  UNL1        0.2383
      7 C          17.0722   69.7968   -5.0944 C.3     1  UNL1        0.1895
      8 O          16.0143   68.8912   -5.4145 O.3     1  UNL1       -0.3779
      9 C          16.9088   70.3516   -3.6581 C.3     1  UNL1        0.1713
     10 C          17.2779   71.8419   -3.7858 C.3     1  UNL1        0.1764
     11 O          17.6593   72.0727   -5.1514 O.3     1  UNL1       -0.3308
     12 O          15.5575   70.2065   -3.2180 O.3     1  UNL1       -0.3794
     13 H          16.0307   68.0705   -4.9037 H       1  UNL1        0.2106
     14 H          15.2530   69.2900   -3.1759 H       1  UNL1        0.2105
     15 N          17.6604   70.8990   -7.2357 N.ar    1  UNL1       -0.2551
     16 C          16.9506   70.5543   -8.3248 C.ar    1  UNL1        0.3323
     17 N          17.5519   70.3779   -9.5163 N.ar    1  UNL1       -0.2743
     18 C          18.8844   70.5474   -9.6359 C.ar    1  UNL1        0.2626
     19 C          19.6437   70.9113   -8.4978 C.ar    1  UNL1        0.0795
     20 C          19.0142   71.0857   -7.3168 C.ar    1  UNL1        0.0869
     21 O          15.7484   70.3983   -8.2318 O.2     1  UNL1       -0.2464
     22 O          19.4297   70.3884  -10.7138 O.2     1  UNL1       -0.2670
     23 H          17.0254   70.1282  -10.2913 H       1  UNL1        0.1734
     24 O          22.1949   71.1834   -3.3063 O.3     1  UNL1       -0.2703
     25 P          22.9717   72.5648   -3.0215 P.3     1  UNL1        0.2208
     26 O          24.3099   72.6216   -3.9159 O.3     1  UNL1       -0.4371
     27 O          22.0963   73.7047   -3.3717 O.2     1  UNL1       -0.5170
     28 O          23.3641   72.6482   -1.4621 O.3     1  UNL1       -0.2865
     29 C          22.6097   72.0038   -0.4340 C.3     1  UNL1        0.2611
     30 C          21.8997   73.0595    0.4170 C.3     1  UNL1        0.1582
     31 C          22.9487   73.9456    1.0958 C.3     1  UNL1        0.1625
     32 C          23.8854   73.0642    1.9266 C.3     1  UNL1        0.1686
     33 C          24.5191   72.0082    1.0171 C.3     1  UNL1        0.1760
     34 O          22.2966   74.8878    1.9504 O.3     1  UNL1       -0.3801
     35 O          23.1413   72.4194    2.9618 O.3     1  UNL1       -0.3794
     36 O          23.4889   71.2391    0.3933 O.3     1  UNL1       -0.3263
     37 H          22.9020   75.4833    2.4130 H       1  UNL1        0.2105
     38 H          23.6727   71.8428    3.5284 H       1  UNL1        0.2105
     39 C          19.8174   74.2489   -0.0152 C.2     1  UNL1        0.2231
     40 C          18.9362   75.0962   -0.8952 C.3     1  UNL1        0.0946
     41 N          21.0430   73.8834   -0.4397 N.am    1  UNL1       -0.2994
     42 O          19.4239   73.8950    1.0766 O.2     1  UNL1       -0.2751
     43 H          21.3576   74.1653   -1.3129 H       1  UNL1        0.1496
     44 C          25.4106   71.0860    1.8509 C.3     1  UNL1        0.1693
     45 O          24.6752   69.9177    2.2204 O.3     1  UNL1       -0.3794
     46 H          25.1793   69.2867    2.7521 H       1  UNL1        0.2105
@<TRIPOS>BOND
     1    29    30    1
     2    30    41    1
     3    30    31    1
     4    31    34    1
     5    31    32    1
     6    32    35    1
     7    32    33    1
     8    33    36    1
     9    33    44    1
    10    39    40    1
    11    39    42    2
    12    39    41   am
    13    41    43    1
    14    29    28    1
    15    34    37    1
    16    35    38    1
    17    29    36    1
    18    44    45    1
    19    45    46    1
    20    15     6    1
    21    15    16   ar
    22    16    21    2
    23    16    17   ar
    24    17    23    1
    25    17    18   ar
    26    18    19   ar
    27    19    20   ar
    28    15    20   ar
    29    18    22    2
    30     6     7    1
    31     6    11    1
    32     7     9    1
    33     7     8    1
    34     8    13    1
    35     9    10    1
    36     9    12    1
    37    10     5    1
    38    10    11    1
    39    12    14    1
    40     5     4    1
    41     4     1    1
    42     1     2    1
    43     1    24    1
    44     1     3    2
    45    24    25    1
    46    28    25    1
    47    25    26    1
    48    25    27    2
@<TRIPOS>MOLECULE
UD2
 46 48 0 0 0
SMALL
GASTEIGER

@<TRIPOS>ATOM
      1 P          20.6912   71.1972   -3.1589 P.3     1  UNL1        0.2189
      2 O          20.8053   70.6592   -1.6460 O.3     1  UNL1       -0.4371
      3 O          20.8104   70.0601   -4.0978 O.2     1  UNL1       -0.5170
      4 O          19.2657   71.9173   -3.3661 O.3     1  UNL1       -0.3112
      5 C          18.0980   71.5570   -2.6257 C.3     1  UNL1        0.1811
      6 C          16.8316   70.4822   -5.8159 C.3     1  UNL1        0.2383
      7 C          17.1471   69.1672   -5.0588 C.3     1  UNL1        0.1895
      8 O          16.2602   68.1216   -5.4612 O.3     1  UNL1       -0.3779
      9 C          16.8926   69.5709   -3.5858 C.3     1  UNL1        0.1713
     10 C          16.9998   71.1078   -3.5927 C.3     1  UNL1        0.1764
     11 O          17.3339   71.5073   -4.9314 O.3     1  UNL1       -0.3308
     12 O          15.5870   69.1619   -3.1748 O.3     1  UNL1       -0.3794
     13 H          16.4182   67.2783   -5.0157 H       1  UNL1        0.2106
     14 H          15.4447   68.2064   -3.2079 H       1  UNL1        0.2105
     15 N          17.5341   70.5190   -7.1005 N.ar    1  UNL1       -0.2551
     16 C          16.8287   70.5539   -8.2451 C.ar    1  UNL1        0.3323
     17 N          17.4480   70.5880   -9.4398 N.ar    1  UNL1       -0.2743
     18 C          18.7949   70.5895   -9.5063 C.ar    1  UNL1        0.2626
     19 C          19.5500   70.5540   -8.3094 C.ar    1  UNL1        0.0795
     20 C          18.9028   70.5245   -7.1254 C.ar    1  UNL1        0.0869
     21 O          15.6136   70.5532   -8.2002 O.2     1  UNL1       -0.2464
     22 O          19.3566   70.6208  -10.5871 O.2     1  UNL1       -0.2670
     23 H          16.9242   70.6117  -10.2555 H       1  UNL1        0.1734
     24 O          21.8721   72.2545   -3.4433 O.3     1  UNL1       -0.2703
     25 P          23.4668   72.2360   -3.2206 P.3     1  UNL1        0.2208
     26 O          23.9655   70.7151   -3.0413 O.3     1  UNL1       -0.4371
     27 O          24.1361   72.8389   -4.3940 O.2     1  UNL1       -0.5170
     28 O          23.8340   73.0808   -1.8999 O.3     1  UNL1       -0.2865
     29 C          22.8620   73.8060   -1.1445 C.3     1  UNL1        0.2611
     30 C          23.5496   74.9425   -0.3840 C.3     1  UNL1        0.1582
     31 C          24.5574   74.3475    0.6042 C.3     1  UNL1        0.1625
     32 C          23.8279   73.3805    1.5407 C.3     1  UNL1        0.1686
     33 C          23.1295   72.3039    0.7058 C.3     1  UNL1        0.1760
     34 O          25.1513   75.3978    1.3706 O.3     1  UNL1       -0.3801
     35 O          22.8569   74.0972    2.3054 O.3     1  UNL1       -0.3794
     36 O          22.2292   72.9257   -0.2134 O.3     1  UNL1       -0.3263
     37 H          25.8019   75.0925    2.0177 H       1  UNL1        0.2105
     38 H          22.3550   73.5454    2.9215 H       1  UNL1        0.2105
     39 C          24.2012   77.1511   -1.1810 C.2     1  UNL1        0.2231
     40 C          24.9204   78.0465   -2.1554 C.3     1  UNL1        0.0946
     41 N          24.2492   75.8128   -1.3324 N.am    1  UNL1       -0.2994
     42 O          23.5781   77.6344   -0.2589 O.2     1  UNL1       -0.2751
     43 H          24.7465   75.4260   -2.0701 H       1  UNL1        0.1496
     44 C          22.3488   71.3681    1.6307 C.3     1  UNL1        0.1693
     45 O          20.9909   71.8051    1.7158 O.3     1  UNL1       -0.3794
     46 H          20.4358   71.2569    2.2871 H       1  UNL1        0.2105
@<TRIPOS>BOND
     1    29    30    1
     2    30    41    1
     3    30    31    1
     4    31    34    1
     5    31    32    1
     6    32    35    1
     7    32    33    1
     8    33    36    1
     9    33    44    1
    10    39    40    1
    11    39    42    2
    12    39    41   am
    13    41    43    1
    14    29    28    1
    15    34    37    1
    16    35    38    1
    17    29    36    1
    18    44    45    1
    19    45    46    1
    20    15     6    1
    21    15    16   ar
    22    16    21    2
    23    16    17   ar
    24    17    23    1
    25    17    18   ar
    26    18    19   ar
    27    19    20   ar
    28    15    20   ar
    29    18    22    2
    30     6     7    1
    31     6    11    1
    32     7     9    1
    33     7     8    1
    34     8    13    1
    35     9    10    1
    36     9    12    1
    37    10     5    1
    38    10    11    1
    39    12    14    1
    40     5     4    1
    41     4     1    1
    42     1     2    1
    43     1    24    1
    44     1     3    2
    45    24    25    1
    46    28    25    1
    47    25    26    1
    48    25    27    2
@<TRIPOS>MOLECULE
UD2
 46 48 0 0 0
SMALL
GASTEIGER

@<TRIPOS>ATOM
      1 P          21.3460   71.0185   -0.2451 P.3     1  UNL1        0.2189
      2 O          21.5599   70.0206    0.9998 O.3     1  UNL1       -0.4371
      3 O          20.0838   70.6795   -0.9386 O.2     1  UNL1       -0.5170
      4 O          21.2737   72.5358    0.2899 O.3     1  UNL1       -0.3112
      5 C          20.7251   72.8861    1.5618 C.3     1  UNL1        0.1811
      6 C          23.9691   73.8761    2.7589 C.3     1  UNL1        0.2383
      7 C          23.8180   74.6014    1.3976 C.3     1  UNL1        0.1895
      8 O          24.5274   75.8418    1.3990 O.3     1  UNL1       -0.3779
      9 C          22.2898   74.8391    1.3235 C.3     1  UNL1        0.1713
     10 C          21.7001   73.8053    2.3017 C.3     1  UNL1        0.1764
     11 O          22.7957   73.0368    2.8238 O.3     1  UNL1       -0.3308
     12 O          21.9704   76.1662    1.7449 O.3     1  UNL1       -0.3794
     13 H          24.4636   76.3327    0.5686 H       1  UNL1        0.2106
     14 H          22.3652   76.8590    1.1985 H       1  UNL1        0.2105
     15 N          25.1871   73.0631    2.7778 N.ar    1  UNL1       -0.2551
     16 C          25.1388   71.7809    2.3746 C.ar    1  UNL1        0.3323
     17 N          26.2426   71.0104    2.3816 N.ar    1  UNL1       -0.2743
     18 C          27.4219   71.5177    2.7945 C.ar    1  UNL1        0.2626
     19 C          27.4875   72.8662    3.2206 C.ar    1  UNL1        0.0795
     20 C          26.3661   73.6168    3.1991 C.ar    1  UNL1        0.0869
     21 O          24.0823   71.3102    1.9996 O.2     1  UNL1       -0.2464
     22 O          28.4218   70.8215    2.8009 O.2     1  UNL1       -0.2670
     23 H          26.1899   70.0875    2.0888 H       1  UNL1        0.1734
     24 O          22.5788   70.8698   -1.2704 O.3     1  UNL1       -0.2703
     25 P          22.9538   71.5613   -2.6755 P.3     1  UNL1        0.2208
     26 O          23.0969   73.1521   -2.4688 O.3     1  UNL1       -0.4371
     27 O          24.2350   71.0115   -3.1698 O.2     1  UNL1       -0.5170
     28 O          21.7911   71.2615   -3.7483 O.3     1  UNL1       -0.2865
     29 C          20.8466   72.2477   -4.1686 C.3     1  UNL1        0.2611
     30 C          19.6547   71.5608   -4.8396 C.3     1  UNL1        0.1582
     31 C          20.1405   70.8197   -6.0891 C.3     1  UNL1        0.1625
     32 C          20.8371   71.8149   -7.0212 C.3     1  UNL1        0.1686
     33 C          21.9838   72.4921   -6.2659 C.3     1  UNL1        0.1760
     34 O          19.0229   70.2364   -6.7627 O.3     1  UNL1       -0.3801
     35 O          19.8992   72.8027   -7.4521 O.3     1  UNL1       -0.3794
     36 O          21.4686   73.1363   -5.0991 O.3     1  UNL1       -0.3263
     37 H          19.2578   69.7495   -7.5646 H       1  UNL1        0.2105
     38 H          20.2731   73.4682   -8.0466 H       1  UNL1        0.2105
     39 C          17.7777   70.7715   -3.5011 C.2     1  UNL1        0.2231
     40 C          17.1573   69.7894   -2.5424 C.3     1  UNL1        0.0946
     41 N          19.0520   70.6052   -3.9069 N.am    1  UNL1       -0.2994
     42 O          17.1303   71.7133   -3.9085 O.2     1  UNL1       -0.2751
     43 H          19.5703   69.8529   -3.5806 H       1  UNL1        0.1496
     44 C          22.6474   73.5312   -7.1716 C.3     1  UNL1        0.1693
     45 O          22.7747   73.0009   -8.4926 O.3     1  UNL1       -0.3794
     46 H          23.1883   73.6071   -9.1222 H       1  UNL1        0.2105
@<TRIPOS>BOND
     1    29    30    1
     2    30    41    1
     3    30    31    1
     4    31    34    1
     5    31    32    1
     6    32    35    1
     7    32    33    1
     8    33    36    1
     9    33    44    1
    10    39    40    1
    11    39    42    2
    12    39    41   am
    13    41    43    1
    14    29    28    1
    15    34    37    1
    16    35    38    1
    17    29    36    1
    18    44    45    1
    19    45    46    1
    20    15     6    1
    21    15    16   ar
    22    16    21    2
    23    16    17   ar
    24    17    23    1
    25    17    18   ar
    26    18    19   ar
    27    19    20   ar
    28    15    20   ar
    29    18    22    2
    30     6     7    1
    31     6    11    1
    32     7     9    1
    33     7     8    1
    34     8    13    1
    35     9    10    1
    36     9    12    1
    37    10     5    1
    38    10    11    1
    39    12    14    1
    40     5     4    1
    41     4     1    1
    42     1     2    1
    43     1    24    1
    44     1     3    2
    45    24    25    1
    46    28    25    1
    47    25    26    1
    48    25    27    2
@<TRIPOS>MOLECULE
UD2
 46 48 0 0 0
SMALL
GASTEIGER

@<TRIPOS>ATOM
      1 P          20.0000   72.5832   -1.3763 P.3     1  UNL1        0.2189
      2 O          21.0745   73.6748   -1.8715 O.3     1  UNL1       -0.4371
      3 O          18.8406   73.2720   -0.7679 O.2     1  UNL1       -0.5170
      4 O          19.5050   71.7084   -2.6346 O.3     1  UNL1       -0.3112
      5 C          18.7258   70.5189   -2.4958 C.3     1  UNL1        0.1811
      6 C          17.0429   70.4460   -5.6737 C.3     1  UNL1        0.2383
      7 C          16.9518   68.9898   -5.1510 C.3     1  UNL1        0.1895
      8 O          15.7592   68.3547   -5.6159 O.3     1  UNL1       -0.3779
      9 C          16.9053   69.1971   -3.6172 C.3     1  UNL1        0.1713
     10 C          17.5003   70.6028   -3.4091 C.3     1  UNL1        0.1764
     11 O          17.8863   71.0996   -4.7004 O.3     1  UNL1       -0.3308
     12 O          15.5568   69.1498   -3.1481 O.3     1  UNL1       -0.3794
     13 H          15.6570   67.4414   -5.3159 H       1  UNL1        0.2106
     14 H          15.1136   68.3055   -3.3071 H       1  UNL1        0.2105
     15 N          17.6631   70.4801   -7.0001 N.ar    1  UNL1       -0.2551
     16 C          16.8876   70.4671   -8.0988 C.ar    1  UNL1        0.3323
     17 N          17.4305   70.4974   -9.3303 N.ar    1  UNL1       -0.2743
     18 C          18.7698   70.5435   -9.4807 C.ar    1  UNL1        0.2626
     19 C          19.5981   70.5587   -8.3328 C.ar    1  UNL1        0.0795
     20 C          19.0266   70.5318   -7.1104 C.ar    1  UNL1        0.0869
     21 O          15.6784   70.4259   -7.9783 O.2     1  UNL1       -0.2464
     22 O          19.2624   70.5714  -10.5948 O.2     1  UNL1       -0.2670
     23 H          16.8568   70.4863  -10.1120 H       1  UNL1        0.1734
     24 O          20.6823   71.6147   -0.2855 O.3     1  UNL1       -0.2703
     25 P          22.1578   71.5123    0.3511 P.3     1  UNL1        0.2208
     26 O          22.1005   70.6328    1.6990 O.3     1  UNL1       -0.4371
     27 O          23.0703   70.8683   -0.6190 O.2     1  UNL1       -0.5170
     28 O          22.6969   72.9897    0.6964 O.3     1  UNL1       -0.2865
     29 C          24.0812   73.3415    0.6600 C.3     1  UNL1        0.2611
     30 C          24.4425   74.1264    1.9234 C.3     1  UNL1        0.1582
     31 C          23.6330   75.4264    1.9555 C.3     1  UNL1        0.1625
     32 C          23.9140   76.2218    0.6777 C.3     1  UNL1        0.1686
     33 C          23.5728   75.3560   -0.5379 C.3     1  UNL1        0.1760
     34 O          24.0177   76.2002    3.0941 O.3     1  UNL1       -0.3801
     35 O          25.2954   76.5837    0.6345 O.3     1  UNL1       -0.3794
     36 O          24.3369   74.1493   -0.4908 O.3     1  UNL1       -0.3263
     37 H          23.5432   77.0386    3.1779 H       1  UNL1        0.2105
     38 H          25.5456   77.0906   -0.1507 H       1  UNL1        0.2105
     39 C          22.9335   73.4665    3.7192 C.2     1  UNL1        0.2231
     40 C          22.6062   72.6402    4.9353 C.3     1  UNL1        0.0946
     41 N          24.1251   73.3225    3.1064 N.am    1  UNL1       -0.2994
     42 O          22.1241   74.2624    3.2907 O.2     1  UNL1       -0.2751
     43 H          24.7728   72.6870    3.4493 H       1  UNL1        0.1496
     44 C          23.9071   76.1220   -1.8193 C.3     1  UNL1        0.1693
     45 O          25.2625   75.8621   -2.1907 O.3     1  UNL1       -0.3794
     46 H          25.5441   76.3165   -2.9964 H       1  UNL1        0.2105
@<TRIPOS>BOND
     1    29    30    1
     2    30    41    1
     3    30    31    1
     4    31    34    1
     5    31    32    1
     6    32    35    1
     7    32    33    1
     8    33    36    1
     9    33    44    1
    10    39    40    1
    11    39    42    2
    12    39    41   am
    13    41    43    1
    14    29    28    1
    15    34    37    1
    16    35    38    1
    17    29    36    1
    18    44    45    1
    19    45    46    1
    20    15     6    1
    21    15    16   ar
    22    16    21    2
    23    16    17   ar
    24    17    23    1
    25    17    18   ar
    26    18    19   ar
    27    19    20   ar
    28    15    20   ar
    29    18    22    2
    30     6     7    1
    31     6    11    1
    32     7     9    1
    33     7     8    1
    34     8    13    1
    35     9    10    1
    36     9    12    1
    37    10     5    1
    38    10    11    1
    39    12    14    1
    40     5     4    1
    41     4     1    1
    42     1     2    1
    43     1    24    1
    44     1     3    2
    45    24    25    1
    46    28    25    1
    47    25    26    1
    48    25    27    2
@<TRIPOS>MOLECULE
UD2
 46 48 0 0 0
SMALL
GASTEIGER

@<TRIPOS>ATOM
      1 P          16.2352   70.0271   -2.7856 P.3     1  UNL1        0.2189
      2 O          17.1153   71.1034   -1.9742 O.3     1  UNL1       -0.4371
      3 O          16.9704   68.7456   -2.8629 O.2     1  UNL1       -0.5170
      4 O          14.8342   69.7972   -2.0253 O.3     1  UNL1       -0.3112
      5 C          14.7296   69.0998   -0.7827 C.3     1  UNL1        0.1811
      6 C          12.0138   67.9829    1.2943 C.3     1  UNL1        0.2383
      7 C          12.3515   69.4001    1.8231 C.3     1  UNL1        0.1895
      8 O          11.1856   70.0416    2.3434 O.3     1  UNL1       -0.3779
      9 C          12.8503   70.1146    0.5431 C.3     1  UNL1        0.1713
     10 C          13.2545   68.9633   -0.3975 C.3     1  UNL1        0.1764
     11 O          13.0476   67.7344    0.3170 O.3     1  UNL1       -0.3308
     12 O          11.7999   70.8897   -0.0370 O.3     1  UNL1       -0.3794
     13 H          11.3458   70.9310    2.6869 H       1  UNL1        0.2106
     14 H          11.4659   71.5927    0.5364 H       1  UNL1        0.2105
     15 N          12.0798   66.9991    2.3772 N.ar    1  UNL1       -0.2551
     16 C          13.2747   66.5343    2.7835 C.ar    1  UNL1        0.3323
     17 N          13.3651   65.6296    3.7762 N.ar    1  UNL1       -0.2743
     18 C          12.2502   65.1745    4.3833 C.ar    1  UNL1        0.2626
     19 C          10.9859   65.6559    3.9664 C.ar    1  UNL1        0.0795
     20 C          10.9252   66.5658    2.9715 C.ar    1  UNL1        0.0869
     21 O          14.2883   66.9360    2.2453 O.2     1  UNL1       -0.2464
     22 O          12.3307   64.3560    5.2823 O.2     1  UNL1       -0.2670
     23 H          14.2345   65.3041    4.0560 H       1  UNL1        0.1734
     24 O          15.9540   70.5756   -4.2733 O.3     1  UNL1       -0.2703
     25 P          16.3990   71.8958   -5.0808 P.3     1  UNL1        0.2208
     26 O          15.5602   71.9938   -6.4521 O.3     1  UNL1       -0.4371
     27 O          16.1330   73.0932   -4.2539 O.2     1  UNL1       -0.5170
     28 O          17.9715   71.8141   -5.4176 O.3     1  UNL1       -0.2865
     29 C          18.6852   70.5798   -5.5078 C.3     1  UNL1        0.2611
     30 C          20.1730   70.8294   -5.2492 C.3     1  UNL1        0.1582
     31 C          20.7209   71.7637   -6.3324 C.3     1  UNL1        0.1625
     32 C          20.4676   71.1383   -7.7068 C.3     1  UNL1        0.1686
     33 C          18.9681   70.8767   -7.8707 C.3     1  UNL1        0.1760
     34 O          22.1260   71.9437   -6.1412 O.3     1  UNL1       -0.3801
     35 O          21.1821   69.9053   -7.8095 O.3     1  UNL1       -0.3794
     36 O          18.5162   70.0267   -6.8147 O.3     1  UNL1       -0.3263
     37 H          22.5398   72.5262   -6.7928 H       1  UNL1        0.2105
     38 H          21.0667   69.4524   -8.6566 H       1  UNL1        0.2105
     39 C          21.2935   70.9993   -3.0921 C.2     1  UNL1        0.2231
     40 C          21.4694   71.6387   -1.7397 C.3     1  UNL1        0.0946
     41 N          20.3433   71.4517   -3.9338 N.am    1  UNL1       -0.2994
     42 O          22.0076   70.0764   -3.4244 O.2     1  UNL1       -0.2751
     43 H          19.7715   72.1889   -3.6682 H       1  UNL1        0.1496
     44 C          18.7134   70.1970   -9.2174 C.3     1  UNL1        0.1693
     45 O          18.6062   71.1895  -10.2401 O.3     1  UNL1       -0.3794
     46 H          18.4441   70.8296  -11.1228 H       1  UNL1        0.2105
@<TRIPOS>BOND
     1    29    30    1
     2    30    41    1
     3    30    31    1
     4    31    34    1
     5    31    32    1
     6    32    35    1
     7    32    33    1
     8    33    36    1
     9    33    44    1
    10    39    40    1
    11    39    42    2
    12    39    41   am
    13    41    43    1
    14    29    28    1
    15    34    37    1
    16    35    38    1
    17    29    36    1
    18    44    45    1
    19    45    46    1
    20    15     6    1
    21    15    16   ar
    22    16    21    2
    23    16    17   ar
    24    17    23    1
    25    17    18   ar
    26    18    19   ar
    27    19    20   ar
    28    15    20   ar
    29    18    22    2
    30     6     7    1
    31     6    11    1
    32     7     9    1
    33     7     8    1
    34     8    13    1
    35     9    10    1
    36     9    12    1
    37    10     5    1
    38    10    11    1
    39    12    14    1
    40     5     4    1
    41     4     1    1
    42     1     2    1
    43     1    24    1
    44     1     3    2
    45    24    25    1
    46    28    25    1
    47    25    26    1
    48    25    27    2
@<TRIPOS>MOLECULE
UD2
 46 48 0 0 0
SMALL
GASTEIGER

@<TRIPOS>ATOM
      1 P          19.6267   72.8368   -1.2489 P.3     1  UNL1        0.2189
      2 O          20.5952   74.0569   -1.6551 O.3     1  UNL1       -0.4371
      3 O          18.2980   73.3659   -0.8701 O.2     1  UNL1       -0.5170
      4 O          19.4692   71.8371   -2.5017 O.3     1  UNL1       -0.3112
      5 C          18.7489   70.6054   -2.4272 C.3     1  UNL1        0.1811
      6 C          17.0673   70.5053   -5.6051 C.3     1  UNL1        0.2383
      7 C          16.9872   69.0508   -5.0758 C.3     1  UNL1        0.1895
      8 O          15.7996   68.4045   -5.5381 O.3     1  UNL1       -0.3779
      9 C          16.9387   69.2646   -3.5431 C.3     1  UNL1        0.1713
     10 C          17.5230   70.6758   -3.3411 C.3     1  UNL1        0.1764
     11 O          17.9054   71.1697   -4.6347 O.3     1  UNL1       -0.3308
     12 O          15.5905   69.2091   -3.0740 O.3     1  UNL1       -0.3794
     13 H          15.7044   67.4918   -5.2340 H       1  UNL1        0.2106
     14 H          15.1539   68.3608   -3.2293 H       1  UNL1        0.2105
     15 N          17.6875   70.5381   -6.9315 N.ar    1  UNL1       -0.2551
     16 C          16.9149   70.4696   -8.0303 C.ar    1  UNL1        0.3323
     17 N          17.4579   70.4974   -9.2618 N.ar    1  UNL1       -0.2743
     18 C          18.7943   70.5970   -9.4123 C.ar    1  UNL1        0.2626
     19 C          19.6194   70.6710   -8.2643 C.ar    1  UNL1        0.0795
     20 C          19.0478   70.6452   -7.0420 C.ar    1  UNL1        0.0869
     21 O          15.7084   70.3798   -7.9097 O.2     1  UNL1       -0.2464
     22 O          19.2869   70.6227  -10.5263 O.2     1  UNL1       -0.2670
     23 H          16.8864   70.4459  -10.0434 H       1  UNL1        0.1734
     24 O          20.2622   72.0387   -0.0030 O.3     1  UNL1       -0.2703
     25 P          21.7490   71.5418    0.3653 P.3     1  UNL1        0.2208
     26 O          21.6695   70.1106    1.0995 O.3     1  UNL1       -0.4371
     27 O          22.5484   71.4166   -0.8731 O.2     1  UNL1       -0.5170
     28 O          22.4443   72.6115    1.3477 O.3     1  UNL1       -0.2865
     29 C          21.7445   73.7246    1.9069 C.3     1  UNL1        0.2611
     30 C          22.5344   75.0091    1.6446 C.3     1  UNL1        0.1582
     31 C          23.8934   74.9145    2.3451 C.3     1  UNL1        0.1625
     32 C          23.6694   74.6657    3.8391 C.3     1  UNL1        0.1686
     33 C          22.8356   73.3940    4.0168 C.3     1  UNL1        0.1760
     34 O          24.6084   76.1394    2.1669 O.3     1  UNL1       -0.3801
     35 O          22.9749   75.7764    4.4095 O.3     1  UNL1       -0.3794
     36 O          21.5984   73.5357    3.3159 O.3     1  UNL1       -0.3263
     37 H          25.4803   76.1498    2.5849 H       1  UNL1        0.2105
     38 H          22.7979   75.6863    5.3564 H       1  UNL1        0.2105
     39 C          23.8635   74.7131   -0.3762 C.2     1  UNL1        0.2231
     40 C          24.0724   74.8812   -1.8583 C.3     1  UNL1        0.0946
     41 N          22.7370   75.1732    0.2029 N.am    1  UNL1       -0.2994
     42 O          24.7097   74.1632    0.2974 O.2     1  UNL1       -0.2751
     43 H          22.0606   75.6139   -0.3350 H       1  UNL1        0.1496
     44 C          22.5567   73.1710    5.5044 C.3     1  UNL1        0.1693
     45 O          21.2178   73.5710    5.8040 O.3     1  UNL1       -0.3794
     46 H          20.9711   73.4572    6.7320 H       1  UNL1        0.2105
@<TRIPOS>BOND
     1    29    30    1
     2    30    41    1
     3    30    31    1
     4    31    34    1
     5    31    32    1
     6    32    35    1
     7    32    33    1
     8    33    36    1
     9    33    44    1
    10    39    40    1
    11    39    42    2
    12    39    41   am
    13    41    43    1
    14    29    28    1
    15    34    37    1
    16    35    38    1
    17    29    36    1
    18    44    45    1
    19    45    46    1
    20    15     6    1
    21    15    16   ar
    22    16    21    2
    23    16    17   ar
    24    17    23    1
    25    17    18   ar
    26    18    19   ar
    27    19    20   ar
    28    15    20   ar
    29    18    22    2
    30     6     7    1
    31     6    11    1
    32     7     9    1
    33     7     8    1
    34     8    13    1
    35     9    10    1
    36     9    12    1
    37    10     5    1
    38    10    11    1
    39    12    14    1
    40     5     4    1
    41     4     1    1
    42     1     2    1
    43     1    24    1
    44     1     3    2
    45    24    25    1
    46    28    25    1
    47    25    26    1
    48    25    27    2
@<TRIPOS>MOLECULE
UD2
 46 48 0 0 0
SMALL
GASTEIGER

@<TRIPOS>ATOM
      1 P          23.4914   72.0561   -3.3149 P.3     1  UNL1        0.2189
      2 O          24.4497   73.0029   -4.1961 O.3     1  UNL1       -0.4371
      3 O          24.2048   70.8032   -2.9829 O.2     1  UNL1       -0.5170
      4 O          23.0860   72.8193   -1.9558 O.3     1  UNL1       -0.3112
      5 C          21.7421   72.8912   -1.4761 C.3     1  UNL1        0.1811
      6 C          23.0901   72.0822    1.7589 C.3     1  UNL1        0.2383
      7 C          22.4304   73.4718    1.9480 C.3     1  UNL1        0.1895
      8 O          21.9421   73.6274    3.2818 O.3     1  UNL1       -0.3779
      9 C          21.2611   73.4175    0.9345 C.3     1  UNL1        0.1713
     10 C          21.6752   72.3155   -0.0593 C.3     1  UNL1        0.1764
     11 O          22.9728   71.8456    0.3391 O.3     1  UNL1       -0.3308
     12 O          20.0445   73.0646    1.5949 O.3     1  UNL1       -0.3794
     13 H          21.5211   74.4813    3.4497 H       1  UNL1        0.2106
     14 H          19.7675   73.6947    2.2737 H       1  UNL1        0.2105
     15 N          24.4977   72.1203    2.1615 N.ar    1  UNL1       -0.2551
     16 C          25.2074   70.9790    2.2125 C.ar    1  UNL1        0.3323
     17 N          26.5027   70.9844    2.5792 N.ar    1  UNL1       -0.2743
     18 C          27.1120   72.1434    2.9014 C.ar    1  UNL1        0.2626
     19 C          26.3772   73.3524    2.8511 C.ar    1  UNL1        0.0795
     20 C          25.0813   73.3181    2.4759 C.ar    1  UNL1        0.0869
     21 O          24.6710   69.9265    1.9244 O.2     1  UNL1       -0.2464
     22 O          28.2844   72.1497    3.2331 O.2     1  UNL1       -0.2670
     23 H          26.9994   70.1523    2.6118 H       1  UNL1        0.1734
     24 O          22.1604   71.7104   -4.1528 O.3     1  UNL1       -0.2703
     25 P          21.5117   72.2876   -5.5089 P.3     1  UNL1        0.2208
     26 O          21.2622   73.8709   -5.3523 O.3     1  UNL1       -0.4371
     27 O          22.4336   72.0436   -6.6398 O.2     1  UNL1       -0.5170
     28 O          20.1093   71.5480   -5.7900 O.3     1  UNL1       -0.2865
     29 C          19.0187   72.1778   -6.4647 C.3     1  UNL1        0.2611
     30 C          17.7011   71.7595   -5.8077 C.3     1  UNL1        0.1582
     31 C          17.5260   70.2448   -5.9537 C.3     1  UNL1        0.1625
     32 C          17.5765   69.8767   -7.4390 C.3     1  UNL1        0.1686
     33 C          18.8993   70.3676   -8.0333 C.3     1  UNL1        0.1760
     34 O          16.2636   69.8555   -5.4078 O.3     1  UNL1       -0.3801
     35 O          16.4859   70.4972   -8.1222 O.3     1  UNL1       -0.3794
     36 O          19.0134   71.7784   -7.8368 O.3     1  UNL1       -0.3263
     37 H          16.0862   68.9066   -5.4658 H       1  UNL1        0.2105
     38 H          16.4557   70.3074   -9.0704 H       1  UNL1        0.2105
     39 C          18.1822   71.2277   -3.4789 C.2     1  UNL1        0.2231
     40 C          18.2111   71.5919   -2.0177 C.3     1  UNL1        0.0946
     41 N          17.7286   72.1145   -4.3865 N.am    1  UNL1       -0.2994
     42 O          18.5674   70.1351   -3.8395 O.2     1  UNL1       -0.2751
     43 H          17.4196   72.9878   -4.0985 H       1  UNL1        0.1496
     44 C          18.9320   70.0566   -9.5308 C.3     1  UNL1        0.1693
     45 O          18.4650   71.1909  -10.2640 O.3     1  UNL1       -0.3794
     46 H          18.4584   71.0648  -11.2227 H       1  UNL1        0.2105
@<TRIPOS>BOND
     1    29    30    1
     2    30    41    1
     3    30    31    1
     4    31    34    1
     5    31    32    1
     6    32    35    1
     7    32    33    1
     8    33    36    1
     9    33    44    1
    10    39    40    1
    11    39    42    2
    12    39    41   am
    13    41    43    1
    14    29    28    1
    15    34    37    1
    16    35    38    1
    17    29    36    1
    18    44    45    1
    19    45    46    1
    20    15     6    1
    21    15    16   ar
    22    16    21    2
    23    16    17   ar
    24    17    23    1
    25    17    18   ar
    26    18    19   ar
    27    19    20   ar
    28    15    20   ar
    29    18    22    2
    30     6     7    1
    31     6    11    1
    32     7     9    1
    33     7     8    1
    34     8    13    1
    35     9    10    1
    36     9    12    1
    37    10     5    1
    38    10    11    1
    39    12    14    1
    40     5     4    1
    41     4     1    1
    42     1     2    1
    43     1    24    1
    44     1     3    2
    45    24    25    1
    46    28    25    1
    47    25    26    1
    48    25    27    2
@<TRIPOS>MOLECULE
UD2
 46 48 0 0 0
SMALL
GASTEIGER

@<TRIPOS>ATOM
      1 P          23.2410   72.4877   -3.8169 P.3     1  UNL1        0.2189
      2 O          24.2742   73.7131   -3.9656 O.3     1  UNL1       -0.4371
      3 O          23.9653   71.2846   -3.3513 O.2     1  UNL1       -0.5170
      4 O          22.1001   72.8745   -2.7480 O.3     1  UNL1       -0.3112
      5 C          22.2417   72.6488   -1.3443 C.3     1  UNL1        0.1811
      6 C          23.0392   74.7010    1.4998 C.3     1  UNL1        0.2383
      7 C          24.4044   74.1353    1.0324 C.3     1  UNL1        0.1895
      8 O          25.4610   75.0551    1.3138 O.3     1  UNL1       -0.3779
      9 C          24.1907   73.9898   -0.4942 C.3     1  UNL1        0.1713
     10 C          22.6592   73.9518   -0.6581 C.3     1  UNL1        0.1764
     11 O          22.0864   74.0166    0.6576 O.3     1  UNL1       -0.3308
     12 O          24.7402   75.1135   -1.1842 O.3     1  UNL1       -0.3794
     13 H          26.3352   74.7459    1.0403 H       1  UNL1        0.2106
     14 H          25.6938   75.2201   -1.0670 H       1  UNL1        0.2105
     15 N          22.8044   74.3823    2.9099 N.ar    1  UNL1       -0.2551
     16 C          22.4777   73.1266    3.2638 C.ar    1  UNL1        0.3323
     17 N          22.2560   72.8053    4.5522 N.ar    1  UNL1       -0.2743
     18 C          22.3610   73.7450    5.5137 C.ar    1  UNL1        0.2626
     19 C          22.7052   75.0706    5.1555 C.ar    1  UNL1        0.0795
     20 C          22.9260   75.3636    3.8566 C.ar    1  UNL1        0.0869
     21 O          22.3797   72.2690    2.4074 O.2     1  UNL1       -0.2464
     22 O          22.1610   73.4555    6.6802 O.2     1  UNL1       -0.2670
     23 H          22.0202   71.8954    4.7899 H       1  UNL1        0.1734
     24 O          22.5582   72.1849   -5.2436 O.3     1  UNL1       -0.2703
     25 P          21.2804   72.7820   -6.0206 P.3     1  UNL1        0.2208
     26 O          21.1698   74.3631   -5.7348 O.3     1  UNL1       -0.4371
     27 O          21.4354   72.5536   -7.4739 O.2     1  UNL1       -0.5170
     28 O          19.9450   72.0476   -5.5008 O.3     1  UNL1       -0.2865
     29 C          19.7511   70.6345   -5.5841 C.3     1  UNL1        0.2611
     30 C          18.5279   70.3368   -6.4546 C.3     1  UNL1        0.1582
     31 C          17.2836   70.9389   -5.7948 C.3     1  UNL1        0.1625
     32 C          17.1422   70.3689   -4.3808 C.3     1  UNL1        0.1686
     33 C          18.4191   70.6656   -3.5899 C.3     1  UNL1        0.1760
     34 O          16.1260   70.6028   -6.5632 O.3     1  UNL1       -0.3801
     35 O          16.9420   68.9561   -4.4531 O.3     1  UNL1       -0.3794
     36 O          19.5419   70.1049   -4.2733 O.3     1  UNL1       -0.3263
     37 H          15.2999   70.9532   -6.2028 H       1  UNL1        0.2105
     38 H          16.8449   68.5273   -3.5914 H       1  UNL1        0.2105
     39 C          19.0123   70.1459   -8.8351 C.2     1  UNL1        0.2231
     40 C          19.2045   70.7557  -10.1988 C.3     1  UNL1        0.0946
     41 N          18.7149   70.9308   -7.7808 N.am    1  UNL1       -0.2994
     42 O          19.1252   68.9471   -8.6851 O.2     1  UNL1       -0.2751
     43 H          18.6255   71.8893   -7.9001 H       1  UNL1        0.1496
     44 C          18.3099   70.0473   -2.1949 C.3     1  UNL1        0.1693
     45 O          19.4935   70.3400   -1.4493 O.3     1  UNL1       -0.3794
     46 H          19.4938   69.9779   -0.5527 H       1  UNL1        0.2105
@<TRIPOS>BOND
     1    29    30    1
     2    30    41    1
     3    30    31    1
     4    31    34    1
     5    31    32    1
     6    32    35    1
     7    32    33    1
     8    33    36    1
     9    33    44    1
    10    39    40    1
    11    39    42    2
    12    39    41   am
    13    41    43    1
    14    29    28    1
    15    34    37    1
    16    35    38    1
    17    29    36    1
    18    44    45    1
    19    45    46    1
    20    15     6    1
    21    15    16   ar
    22    16    21    2
    23    16    17   ar
    24    17    23    1
    25    17    18   ar
    26    18    19   ar
    27    19    20   ar
    28    15    20   ar
    29    18    22    2
    30     6     7    1
    31     6    11    1
    32     7     9    1
    33     7     8    1
    34     8    13    1
    35     9    10    1
    36     9    12    1
    37    10     5    1
    38    10    11    1
    39    12    14    1
    40     5     4    1
    41     4     1    1
    42     1     2    1
    43     1    24    1
    44     1     3    2
    45    24    25    1
    46    28    25    1
    47    25    26    1
    48    25    27    2
@<TRIPOS>MOLECULE
UD2
 46 48 0 0 0
SMALL
GASTEIGER

@<TRIPOS>ATOM
      1 P          22.7704   71.6964   -3.0300 P.3     1  UNL1        0.2189
      2 O          22.0709   70.2682   -2.7808 O.3     1  UNL1       -0.4371
      3 O          24.1760   71.4924   -3.4443 O.2     1  UNL1       -0.5170
      4 O          21.9786   72.4868   -4.1885 O.3     1  UNL1       -0.3112
      5 C          22.4212   72.5231   -5.5465 C.3     1  UNL1        0.1811
      6 C          19.4282   70.6526   -6.2391 C.3     1  UNL1        0.2383
      7 C          19.1741   72.0436   -6.8738 C.3     1  UNL1        0.1895
      8 O          18.3279   71.9343   -8.0200 O.3     1  UNL1       -0.3779
      9 C          20.6024   72.4810   -7.2813 C.3     1  UNL1        0.1713
     10 C          21.5261   71.6200   -6.3986 C.3     1  UNL1        0.1764
     11 O          20.6852   70.8234   -5.5490 O.3     1  UNL1       -0.3308
     12 O          20.8328   72.2063   -8.6641 O.3     1  UNL1       -0.3794
     13 H          18.1392   72.7785   -8.4518 H       1  UNL1        0.2106
     14 H          20.2387   72.6773   -9.2638 H       1  UNL1        0.2105
     15 N          18.3619   70.3145   -5.2937 N.ar    1  UNL1       -0.2551
     16 C          17.2357   69.7307   -5.7404 C.ar    1  UNL1        0.3323
     17 N          16.2394   69.4091   -4.8941 N.ar    1  UNL1       -0.2743
     18 C          16.3583   69.6683   -3.5760 C.ar    1  UNL1        0.2626
     19 C          17.5389   70.2816   -3.0919 C.ar    1  UNL1        0.0795
     20 C          18.5234   70.5892   -3.9624 C.ar    1  UNL1        0.0869
     21 O          17.1148   69.4909   -6.9263 O.2     1  UNL1       -0.2464
     22 O          15.4575   69.3774   -2.8089 O.2     1  UNL1       -0.2670
     23 H          15.4336   68.9897   -5.2330 H       1  UNL1        0.1734
     24 O          22.7311   72.5581   -1.6701 O.3     1  UNL1       -0.2703
     25 P          21.6179   73.4837   -0.9651 P.3     1  UNL1        0.2208
     26 O          21.8747   75.0244   -1.3576 O.3     1  UNL1       -0.4371
     27 O          20.2727   73.0756   -1.4258 O.2     1  UNL1       -0.5170
     28 O          21.7128   73.3137    0.6333 O.3     1  UNL1       -0.2865
     29 C          22.0496   74.3888    1.5119 C.3     1  UNL1        0.2611
     30 C          22.6819   73.8275    2.7877 C.3     1  UNL1        0.1582
     31 C          21.6597   72.9419    3.5069 C.3     1  UNL1        0.1625
     32 C          20.4014   73.7649    3.7963 C.3     1  UNL1        0.1686
     33 C          19.8568   74.3288    2.4812 C.3     1  UNL1        0.1760
     34 O          22.2167   72.4725    4.7369 O.3     1  UNL1       -0.3801
     35 O          20.7265   74.8401    4.6793 O.3     1  UNL1       -0.3794
     36 O          20.8668   75.1170    1.8483 O.3     1  UNL1       -0.3263
     37 H          21.6225   71.9036    5.2454 H       1  UNL1        0.2105
     38 H          19.9744   75.4051    4.9057 H       1  UNL1        0.2105
     39 C          23.7380   71.7078    2.2137 C.2     1  UNL1        0.2231
     40 C          24.9497   70.8880    1.8556 C.3     1  UNL1        0.0946
     41 N          23.8611   73.0307    2.4397 N.am    1  UNL1       -0.2994
     42 O          22.6501   71.1774    2.2988 O.2     1  UNL1       -0.2751
     43 H          24.7309   73.4550    2.3727 H       1  UNL1        0.1496
     44 C          18.6336   75.2016    2.7685 C.3     1  UNL1        0.1693
     45 O          17.8985   74.6477    3.8617 O.3     1  UNL1       -0.3794
     46 H          17.1077   75.1507    4.0996 H       1  UNL1        0.2105
@<TRIPOS>BOND
     1    29    30    1
     2    30    41    1
     3    30    31    1
     4    31    34    1
     5    31    32    1
     6    32    35    1
     7    32    33    1
     8    33    36    1
     9    33    44    1
    10    39    40    1
    11    39    42    2
    12    39    41   am
    13    41    43    1
    14    29    28    1
    15    34    37    1
    16    35    38    1
    17    29    36    1
    18    44    45    1
    19    45    46    1
    20    15     6    1
    21    15    16   ar
    22    16    21    2
    23    16    17   ar
    24    17    23    1
    25    17    18   ar
    26    18    19   ar
    27    19    20   ar
    28    15    20   ar
    29    18    22    2
    30     6     7    1
    31     6    11    1
    32     7     9    1
    33     7     8    1
    34     8    13    1
    35     9    10    1
    36     9    12    1
    37    10     5    1
    38    10    11    1
    39    12    14    1
    40     5     4    1
    41     4     1    1
    42     1     2    1
    43     1    24    1
    44     1     3    2
    45    24    25    1
    46    28    25    1
    47    25    26    1
    48    25    27    2
@<TRIPOS>MOLECULE
UD2
 46 48 0 0 0
SMALL
GASTEIGER

@<TRIPOS>ATOM
      1 P          23.4258   72.2613   -3.3637 P.3     1  UNL1        0.2189
      2 O          24.3788   72.9926   -4.4353 O.3     1  UNL1       -0.4371
      3 O          23.9194   70.8881   -3.1197 O.2     1  UNL1       -0.5170
      4 O          23.4375   73.0893   -1.9823 O.3     1  UNL1       -0.3112
      5 C          22.5296   72.8262   -0.9109 C.3     1  UNL1        0.1811
      6 C          24.6495   71.6548    1.7482 C.3     1  UNL1        0.2383
      7 C          23.2899   71.9454    2.4330 C.3     1  UNL1        0.1895
      8 O          23.0800   71.0695    3.5423 O.3     1  UNL1       -0.3779
      9 C          22.2825   71.6473    1.2956 C.3     1  UNL1        0.1713
     10 C          23.1235   71.7569    0.0094 C.3     1  UNL1        0.1764
     11 O          24.4543   72.1318    0.3991 O.3     1  UNL1       -0.3308
     12 O          21.7492   70.3293    1.4342 O.3     1  UNL1       -0.3794
     13 H          22.2427   71.2127    4.0040 H       1  UNL1        0.2106
     14 H          21.2596   70.1866    2.2554 H       1  UNL1        0.2105
     15 N          25.7276   72.3957    2.4069 N.ar    1  UNL1       -0.2551
     16 C          25.6367   73.7315    2.5349 C.ar    1  UNL1        0.3323
     17 N          26.6126   74.4379    3.1356 N.ar    1  UNL1       -0.2743
     18 C          27.7027   73.8110    3.6228 C.ar    1  UNL1        0.2626
     19 C          27.8109   72.4052    3.4959 C.ar    1  UNL1        0.0795
     20 C          26.8156   71.7218    2.8928 C.ar    1  UNL1        0.0869
     21 O          24.6594   74.3099    2.1005 O.2     1  UNL1       -0.2464
     22 O          28.5864   74.4491    4.1671 O.2     1  UNL1       -0.2670
     23 H          26.5317   75.4005    3.2185 H       1  UNL1        0.1734
     24 O          21.9225   72.1975   -3.9375 O.3     1  UNL1       -0.2703
     25 P          21.2653   72.4665   -5.3827 P.3     1  UNL1        0.2208
     26 O          21.1929   74.0527   -5.6519 O.3     1  UNL1       -0.4371
     27 O          22.0933   71.8267   -6.4284 O.2     1  UNL1       -0.5170
     28 O          19.7795   71.8471   -5.4203 O.3     1  UNL1       -0.2865
     29 C          19.5220   70.4510   -5.5815 C.3     1  UNL1        0.2611
     30 C          18.3194   70.2566   -6.5080 C.3     1  UNL1        0.1582
     31 C          17.0813   70.8864   -5.8624 C.3     1  UNL1        0.1625
     32 C          16.8605   70.2557   -4.4847 C.3     1  UNL1        0.1686
     33 C          18.1198   70.4503   -3.6359 C.3     1  UNL1        0.1760
     34 O          15.9385   70.6455   -6.6866 O.3     1  UNL1       -0.3801
     35 O          16.5964   68.8597   -4.6353 O.3     1  UNL1       -0.3794
     36 O          19.2393   69.8690   -4.3072 O.3     1  UNL1       -0.3263
     37 H          15.1171   71.0181   -6.3380 H       1  UNL1        0.2105
     38 H          16.4470   68.3947   -3.8002 H       1  UNL1        0.2105
     39 C          18.9583   70.1653   -8.8577 C.2     1  UNL1        0.2231
     40 C          19.2299   70.8307  -10.1814 C.3     1  UNL1        0.0946
     41 N          18.5836   70.9047   -7.7952 N.am    1  UNL1       -0.2994
     42 O          19.0769   68.9628   -8.7475 O.2     1  UNL1       -0.2751
     43 H          18.4896   71.8662   -7.8827 H       1  UNL1        0.1496
     44 C          17.9295   69.7708   -2.2785 C.3     1  UNL1        0.1693
     45 O          17.4149   68.4519   -2.4732 O.3     1  UNL1       -0.3794
     46 H          17.2691   67.9609   -1.6530 H       1  UNL1        0.2105
@<TRIPOS>BOND
     1    29    30    1
     2    30    41    1
     3    30    31    1
     4    31    34    1
     5    31    32    1
     6    32    35    1
     7    32    33    1
     8    33    36    1
     9    33    44    1
    10    39    40    1
    11    39    42    2
    12    39    41   am
    13    41    43    1
    14    29    28    1
    15    34    37    1
    16    35    38    1
    17    29    36    1
    18    44    45    1
    19    45    46    1
    20    15     6    1
    21    15    16   ar
    22    16    21    2
    23    16    17   ar
    24    17    23    1
    25    17    18   ar
    26    18    19   ar
    27    19    20   ar
    28    15    20   ar
    29    18    22    2
    30     6     7    1
    31     6    11    1
    32     7     9    1
    33     7     8    1
    34     8    13    1
    35     9    10    1
    36     9    12    1
    37    10     5    1
    38    10    11    1
    39    12    14    1
    40     5     4    1
    41     4     1    1
    42     1     2    1
    43     1    24    1
    44     1     3    2
    45    24    25    1
    46    28    25    1
    47    25    26    1
    48    25    27    2
@<TRIPOS>MOLECULE
UD2
 46 48 0 0 0
SMALL
GASTEIGER

@<TRIPOS>ATOM
      1 P          15.6720   71.2861   -2.4059 P.3     1  UNL1        0.2189
      2 O          14.4973   72.0731   -3.1755 O.3     1  UNL1       -0.4371
      3 O          16.0029   71.9967   -1.1512 O.2     1  UNL1       -0.5170
      4 O          15.1808   69.7912   -2.0627 O.3     1  UNL1       -0.3112
      5 C          15.2039   69.2499   -0.7406 C.3     1  UNL1        0.1811
      6 C          12.7450   67.8326    1.4689 C.3     1  UNL1        0.2383
      7 C          12.5182   69.3628    1.5637 C.3     1  UNL1        0.1895
      8 O          11.1450   69.6598    1.8240 O.3     1  UNL1       -0.3779
      9 C          12.9282   69.8407    0.1492 C.3     1  UNL1        0.1713
     10 C          13.8177   68.7039   -0.3892 C.3     1  UNL1        0.1764
     11 O          13.9296   67.7191    0.6506 O.3     1  UNL1       -0.3308
     12 O          11.7736   70.0063   -0.6756 O.3     1  UNL1       -0.3794
     13 H          10.9528   70.6048    1.8926 H       1  UNL1        0.2106
     14 H          11.1493   70.6691   -0.3511 H       1  UNL1        0.2105
     15 N          12.9788   67.2625    2.7975 N.ar    1  UNL1       -0.2551
     16 C          12.8475   65.9374    2.9866 C.ar    1  UNL1        0.3323
     17 N          13.0560   65.3863    4.1970 N.ar    1  UNL1       -0.2743
     18 C          13.4041   66.1608    5.2446 C.ar    1  UNL1        0.2626
     19 C          13.5469   67.5571    5.0596 C.ar    1  UNL1        0.0795
     20 C          13.3358   68.0821    3.8343 C.ar    1  UNL1        0.0869
     21 O          12.5343   65.2268    2.0510 O.2     1  UNL1       -0.2464
     22 O          13.5935   65.6632    6.3405 O.2     1  UNL1       -0.2670
     23 H          12.9559   64.4292    4.3162 H       1  UNL1        0.1734
     24 O          16.9781   71.2186   -3.3455 O.3     1  UNL1       -0.2703
     25 P          18.3383   70.3575   -3.3087 P.3     1  UNL1        0.2208
     26 O          18.7549   70.0783   -1.7783 O.3     1  UNL1       -0.4371
     27 O          18.1259   69.0694   -4.0044 O.2     1  UNL1       -0.5170
     28 O          19.5127   71.1778   -4.0440 O.3     1  UNL1       -0.2865
     29 C          20.6616   70.5492   -4.6150 C.3     1  UNL1        0.2611
     30 C          21.9003   71.4071   -4.3462 C.3     1  UNL1        0.1582
     31 C          21.7268   72.7672   -5.0292 C.3     1  UNL1        0.1625
     32 C          21.4858   72.5482   -6.5253 C.3     1  UNL1        0.1686
     33 C          20.2627   71.6461   -6.7101 C.3     1  UNL1        0.1760
     34 O          22.9099   73.5480   -4.8452 O.3     1  UNL1       -0.3801
     35 O          22.6320   71.9248   -7.1074 O.3     1  UNL1       -0.3794
     36 O          20.4765   70.4103   -6.0252 O.3     1  UNL1       -0.3263
     37 H          22.8695   74.4243   -5.2521 H       1  UNL1        0.2105
     38 H          22.5489   71.7549   -8.0562 H       1  UNL1        0.2105
     39 C          23.2273   71.2979   -2.3054 C.2     1  UNL1        0.2231
     40 C          23.3899   71.4967   -0.8213 C.3     1  UNL1        0.0946
     41 N          22.0577   71.6006   -2.9025 N.am    1  UNL1       -0.2994
     42 O          24.1495   70.8648   -2.9643 O.2     1  UNL1       -0.2751
     43 H          21.3198   71.9459   -2.3760 H       1  UNL1        0.1496
     44 C          20.0507   71.3737   -8.2005 C.3     1  UNL1        0.1693
     45 O          19.9816   69.9636   -8.4226 O.3     1  UNL1       -0.3794
     46 H          19.8479   69.7168   -9.3479 H       1  UNL1        0.2105
@<TRIPOS>BOND
     1    29    30    1
     2    30    41    1
     3    30    31    1
     4    31    34    1
     5    31    32    1
     6    32    35    1
     7    32    33    1
     8    33    36    1
     9    33    44    1
    10    39    40    1
    11    39    42    2
    12    39    41   am
    13    41    43    1
    14    29    28    1
    15    34    37    1
    16    35    38    1
    17    29    36    1
    18    44    45    1
    19    45    46    1
    20    15     6    1
    21    15    16   ar
    22    16    21    2
    23    16    17   ar
    24    17    23    1
    25    17    18   ar
    26    18    19   ar
    27    19    20   ar
    28    15    20   ar
    29    18    22    2
    30     6     7    1
    31     6    11    1
    32     7     9    1
    33     7     8    1
    34     8    13    1
    35     9    10    1
    36     9    12    1
    37    10     5    1
    38    10    11    1
    39    12    14    1
    40     5     4    1
    41     4     1    1
    42     1     2    1
    43     1    24    1
    44     1     3    2
    45    24    25    1
    46    28    25    1
    47    25    26    1
    48    25    27    2
@<TRIPOS>MOLECULE
UD2
 46 48 0 0 0
SMALL
GASTEIGER

@<TRIPOS>ATOM
      1 P          23.1890   71.8955   -3.4527 P.3     1  UNL1        0.2189
      2 O          24.0423   72.8133   -4.4631 O.3     1  UNL1       -0.4371
      3 O          23.9959   70.7226   -3.0498 O.2     1  UNL1       -0.5170
      4 O          22.8002   72.7538   -2.1466 O.3     1  UNL1       -0.3112
      5 C          22.4732   72.1543   -0.8917 C.3     1  UNL1        0.1811
      6 C          24.0678   72.5508    2.3078 C.3     1  UNL1        0.2383
      7 C          23.9068   71.0185    2.1399 C.3     1  UNL1        0.1895
      8 O          24.9603   70.3190    2.8050 O.3     1  UNL1       -0.3779
      9 C          24.0127   70.8466    0.6047 C.3     1  UNL1        0.1713
     10 C          23.6800   72.2431    0.0456 C.3     1  UNL1        0.1764
     11 O          23.3689   73.0889    1.1642 O.3     1  UNL1       -0.3308
     12 O          25.3383   70.4624    0.2360 O.3     1  UNL1       -0.3794
     13 H          24.9032   69.3569    2.7292 H       1  UNL1        0.2106
     14 H          25.6220   69.6172    0.6097 H       1  UNL1        0.2105
     15 N          23.4435   73.0017    3.5535 N.ar    1  UNL1       -0.2551
     16 C          22.1673   72.6695    3.8176 C.ar    1  UNL1        0.3323
     17 N          21.5682   73.0702    4.9546 N.ar    1  UNL1       -0.2743
     18 C          22.2450   73.8146    5.8525 C.ar    1  UNL1        0.2626
     19 C          23.5894   74.1707    5.5879 C.ar    1  UNL1        0.0795
     20 C          24.1662   73.7516    4.4419 C.ar    1  UNL1        0.0869
     21 O          21.5449   71.9985    3.0171 O.2     1  UNL1       -0.2464
     22 O          21.7040   74.1776    6.8821 O.2     1  UNL1       -0.2670
     23 H          20.6470   72.8228    5.1288 H       1  UNL1        0.1734
     24 O          21.8448   71.3964   -4.1857 O.3     1  UNL1       -0.2703
     25 P          20.2813   71.4379   -3.8027 P.3     1  UNL1        0.2208
     26 O          20.0184   70.5001   -2.5201 O.3     1  UNL1       -0.4371
     27 O          19.8876   72.8282   -3.4855 O.2     1  UNL1       -0.5170
     28 O          19.4097   70.9034   -5.0466 O.3     1  UNL1       -0.2865
     29 C          18.4594   71.7162   -5.7376 C.3     1  UNL1        0.2611
     30 C          17.0792   71.0578   -5.6708 C.3     1  UNL1        0.1582
     31 C          17.1351   69.7017   -6.3810 C.3     1  UNL1        0.1625
     32 C          17.6092   69.9111   -7.8217 C.3     1  UNL1        0.1686
     33 C          18.9693   70.6139   -7.8056 C.3     1  UNL1        0.1760
     34 O          15.8328   69.1125   -6.3876 O.3     1  UNL1       -0.3801
     35 O          16.6621   70.7185   -8.5236 O.3     1  UNL1       -0.3794
     36 O          18.8548   71.8535   -7.1040 O.3     1  UNL1       -0.3263
     37 H          15.7943   68.2493   -6.8219 H       1  UNL1        0.2105
     38 H          16.8994   70.8929   -9.4451 H       1  UNL1        0.2105
     39 C          16.9251   69.6767   -3.6691 C.2     1  UNL1        0.2231
     40 C          16.5337   69.4742   -2.2288 C.3     1  UNL1        0.0946
     41 N          16.6980   70.8615   -4.2699 N.am    1  UNL1       -0.2994
     42 O          17.4452   68.7729   -4.2894 O.2     1  UNL1       -0.2751
     43 H          16.2813   71.5841   -3.7746 H       1  UNL1        0.1496
     44 C          19.4224   70.8805   -9.2422 C.3     1  UNL1        0.1693
     45 O          18.3732   70.5285  -10.1465 O.3     1  UNL1       -0.3794
     46 H          18.5912   70.6717  -11.0776 H       1  UNL1        0.2105
@<TRIPOS>BOND
     1    29    30    1
     2    30    41    1
     3    30    31    1
     4    31    34    1
     5    31    32    1
     6    32    35    1
     7    32    33    1
     8    33    36    1
     9    33    44    1
    10    39    40    1
    11    39    42    2
    12    39    41   am
    13    41    43    1
    14    29    28    1
    15    34    37    1
    16    35    38    1
    17    29    36    1
    18    44    45    1
    19    45    46    1
    20    15     6    1
    21    15    16   ar
    22    16    21    2
    23    16    17   ar
    24    17    23    1
    25    17    18   ar
    26    18    19   ar
    27    19    20   ar
    28    15    20   ar
    29    18    22    2
    30     6     7    1
    31     6    11    1
    32     7     9    1
    33     7     8    1
    34     8    13    1
    35     9    10    1
    36     9    12    1
    37    10     5    1
    38    10    11    1
    39    12    14    1
    40     5     4    1
    41     4     1    1
    42     1     2    1
    43     1    24    1
    44     1     3    2
    45    24    25    1
    46    28    25    1
    47    25    26    1
    48    25    27    2
@<TRIPOS>MOLECULE
UD2
 46 48 0 0 0
SMALL
GASTEIGER

@<TRIPOS>ATOM
      1 P          21.6271   72.9828   -6.2231 P.3     1  UNL1        0.2189
      2 O          23.1026   73.1349   -6.8485 O.3     1  UNL1       -0.4371
      3 O          20.7818   74.1112   -6.6714 O.2     1  UNL1       -0.5170
      4 O          20.9757   71.5950   -6.7166 O.3     1  UNL1       -0.3112
      5 C          20.6186   71.3446   -8.0771 C.3     1  UNL1        0.1811
      6 C          17.4527   70.0974   -6.9116 C.3     1  UNL1        0.2383
      7 C          17.0842   71.1612   -7.9767 C.3     1  UNL1        0.1895
      8 O          15.8604   70.8237   -8.6326 O.3     1  UNL1       -0.3779
      9 C          18.2797   71.0684   -8.9563 C.3     1  UNL1        0.1713
     10 C          19.4004   70.4189   -8.1222 C.3     1  UNL1        0.1764
     11 O          18.8868   70.2220   -6.7952 O.3     1  UNL1       -0.3308
     12 O          17.9459   70.2442  -10.0743 O.3     1  UNL1       -0.3794
     13 H          15.5873   71.4596   -9.3077 H       1  UNL1        0.2106
     14 H          17.2065   70.5757  -10.6015 H       1  UNL1        0.2105
     15 N          16.8029   70.3997   -5.6343 N.ar    1  UNL1       -0.2551
     16 C          16.3623   69.3948   -4.8565 C.ar    1  UNL1        0.3323
     17 N          15.7613   69.6434   -3.6779 N.ar    1  UNL1       -0.2743
     18 C          15.5929   70.9133   -3.2564 C.ar    1  UNL1        0.2626
     19 C          16.0528   71.9807   -4.0646 C.ar    1  UNL1        0.0795
     20 C          16.6556   71.7022   -5.2396 C.ar    1  UNL1        0.0869
     21 O          16.5075   68.2449   -5.2239 O.2     1  UNL1       -0.2464
     22 O          15.0494   71.1396   -2.1896 O.2     1  UNL1       -0.2670
     23 H          15.4484   68.9072   -3.1300 H       1  UNL1        0.1734
     24 O          21.7222   72.9885   -4.6155 O.3     1  UNL1       -0.2703
     25 P          21.3275   74.0557   -3.4761 P.3     1  UNL1        0.2208
     26 O          22.0855   75.4481   -3.7600 O.3     1  UNL1       -0.4371
     27 O          19.8651   74.2784   -3.4937 O.2     1  UNL1       -0.5170
     28 O          21.7673   73.4890   -2.0346 O.3     1  UNL1       -0.2865
     29 C          22.9281   72.6797   -1.8374 C.3     1  UNL1        0.2611
     30 C          22.5182   71.3387   -1.2239 C.3     1  UNL1        0.1582
     31 C          21.8856   71.5871    0.1489 C.3     1  UNL1        0.1625
     32 C          22.8823   72.3472    1.0282 C.3     1  UNL1        0.1686
     33 C          23.2782   73.6497    0.3278 C.3     1  UNL1        0.1760
     34 O          21.5666   70.3353    0.7609 O.3     1  UNL1       -0.3801
     35 O          24.0452   71.5436    1.2364 O.3     1  UNL1       -0.3794
     36 O          23.8311   73.3497   -0.9553 O.3     1  UNL1       -0.3263
     37 H          21.1610   70.4173    1.6349 H       1  UNL1        0.2105
     38 H          24.7214   71.9641    1.7860 H       1  UNL1        0.2105
     39 C          20.2260   70.8470   -1.8888 C.2     1  UNL1        0.2231
     40 C          19.2263   70.1676   -2.7874 C.3     1  UNL1        0.0946
     41 N          21.5464   70.6772   -2.0984 N.am    1  UNL1       -0.2994
     42 O          19.8428   71.5477   -0.9753 O.2     1  UNL1       -0.2751
     43 H          21.8531   70.1163   -2.8280 H       1  UNL1        0.1496
     44 C          24.3194   74.3866    1.1725 C.3     1  UNL1        0.1693
     45 O          23.6604   75.3014    2.0507 O.3     1  UNL1       -0.3794
     46 H          24.2606   75.8046    2.6178 H       1  UNL1        0.2105
@<TRIPOS>BOND
     1    29    30    1
     2    30    41    1
     3    30    31    1
     4    31    34    1
     5    31    32    1
     6    32    35    1
     7    32    33    1
     8    33    36    1
     9    33    44    1
    10    39    40    1
    11    39    42    2
    12    39    41   am
    13    41    43    1
    14    29    28    1
    15    34    37    1
    16    35    38    1
    17    29    36    1
    18    44    45    1
    19    45    46    1
    20    15     6    1
    21    15    16   ar
    22    16    21    2
    23    16    17   ar
    24    17    23    1
    25    17    18   ar
    26    18    19   ar
    27    19    20   ar
    28    15    20   ar
    29    18    22    2
    30     6     7    1
    31     6    11    1
    32     7     9    1
    33     7     8    1
    34     8    13    1
    35     9    10    1
    36     9    12    1
    37    10     5    1
    38    10    11    1
    39    12    14    1
    40     5     4    1
    41     4     1    1
    42     1     2    1
    43     1    24    1
    44     1     3    2
    45    24    25    1
    46    28    25    1
    47    25    26    1
    48    25    27    2
@<TRIPOS>MOLECULE
UD2
 46 48 0 0 0
SMALL
GASTEIGER

@<TRIPOS>ATOM
      1 P          21.9258   72.6744   -6.3574 P.3     1  UNL1        0.2189
      2 O          23.0716   73.2741   -7.3160 O.3     1  UNL1       -0.4371
      3 O          20.8595   73.6831   -6.1715 O.2     1  UNL1       -0.5170
      4 O          21.3015   71.3512   -7.0304 O.3     1  UNL1       -0.3112
      5 C          20.6363   71.3623   -8.2949 C.3     1  UNL1        0.1811
      6 C          17.5176   70.1370   -6.9876 C.3     1  UNL1        0.2383
      7 C          17.1091   71.1072   -8.1251 C.3     1  UNL1        0.1895
      8 O          15.8846   70.6926   -8.7339 O.3     1  UNL1       -0.3779
      9 C          18.2927   70.9665   -9.1134 C.3     1  UNL1        0.1713
     10 C          19.4400   70.4085   -8.2498 C.3     1  UNL1        0.1764
     11 O          18.9498   70.3026   -6.9037 O.3     1  UNL1       -0.3308
     12 O          17.9629   70.0515  -10.1597 O.3     1  UNL1       -0.3794
     13 H          15.5870   71.2685   -9.4512 H       1  UNL1        0.2106
     14 H          17.2086   70.3247  -10.6990 H       1  UNL1        0.2105
     15 N          16.8787   70.5217   -5.7272 N.ar    1  UNL1       -0.2551
     16 C          16.4804   69.5701   -4.8643 C.ar    1  UNL1        0.3323
     17 N          15.8903   69.8949   -3.6987 N.ar    1  UNL1       -0.2743
     18 C          15.6904   71.1890   -3.3766 C.ar    1  UNL1        0.2626
     19 C          16.1057   72.2011   -4.2751 C.ar    1  UNL1        0.0795
     20 C          16.6984   71.8469   -5.4347 C.ar    1  UNL1        0.0869
     21 O          16.6544   68.3991   -5.1415 O.2     1  UNL1       -0.2464
     22 O          15.1569   71.4843   -2.3217 O.2     1  UNL1       -0.2670
     23 H          15.6081   69.1962   -3.0885 H       1  UNL1        0.1734
     24 O          22.5643   72.2983   -4.9277 O.3     1  UNL1       -0.2703
     25 P          23.3123   73.1445   -3.7800 P.3     1  UNL1        0.2208
     26 O          24.8970   73.1535   -4.0672 O.3     1  UNL1       -0.4371
     27 O          22.8037   74.5336   -3.7802 O.2     1  UNL1       -0.5170
     28 O          23.0303   72.4695   -2.3456 O.3     1  UNL1       -0.2865
     29 C          22.5564   73.2074   -1.2176 C.3     1  UNL1        0.2611
     30 C          22.5280   72.2978    0.0130 C.3     1  UNL1        0.1582
     31 C          21.5475   71.1475   -0.2355 C.3     1  UNL1        0.1625
     32 C          20.1683   71.7277   -0.5604 C.3     1  UNL1        0.1686
     33 C          20.2877   72.6595   -1.7693 C.3     1  UNL1        0.1760
     34 O          21.4594   70.3340    0.9365 O.3     1  UNL1       -0.3801
     35 O          19.6826   72.4632    0.5640 O.3     1  UNL1       -0.3794
     36 O          21.2373   73.6884   -1.4837 O.3     1  UNL1       -0.3263
     37 H          20.8551   69.5840    0.8497 H       1  UNL1        0.2105
     38 H          18.8110   72.8606    0.4282 H       1  UNL1        0.2105
     39 C          24.3289   71.6287    1.5120 C.2     1  UNL1        0.2231
     40 C          25.7063   71.0715    1.7586 C.3     1  UNL1        0.0946
     41 N          23.8681   71.7560    0.2520 N.am    1  UNL1       -0.2994
     42 O          23.6332   71.9634    2.4481 O.2     1  UNL1       -0.2751
     43 H          24.4243   71.4895   -0.4967 H       1  UNL1        0.1496
     44 C          18.9252   73.2898   -2.0637 C.3     1  UNL1        0.1693
     45 O          18.7653   74.4705   -1.2746 O.3     1  UNL1       -0.3794
     46 H          17.9218   74.9235   -1.4100 H       1  UNL1        0.2105
@<TRIPOS>BOND
     1    29    30    1
     2    30    41    1
     3    30    31    1
     4    31    34    1
     5    31    32    1
     6    32    35    1
     7    32    33    1
     8    33    36    1
     9    33    44    1
    10    39    40    1
    11    39    42    2
    12    39    41   am
    13    41    43    1
    14    29    28    1
    15    34    37    1
    16    35    38    1
    17    29    36    1
    18    44    45    1
    19    45    46    1
    20    15     6    1
    21    15    16   ar
    22    16    21    2
    23    16    17   ar
    24    17    23    1
    25    17    18   ar
    26    18    19   ar
    27    19    20   ar
    28    15    20   ar
    29    18    22    2
    30     6     7    1
    31     6    11    1
    32     7     9    1
    33     7     8    1
    34     8    13    1
    35     9    10    1
    36     9    12    1
    37    10     5    1
    38    10    11    1
    39    12    14    1
    40     5     4    1
    41     4     1    1
    42     1     2    1
    43     1    24    1
    44     1     3    2
    45    24    25    1
    46    28    25    1
    47    25    26    1
    48    25    27    2
@<TRIPOS>MOLECULE
UD2
 46 48 0 0 0
SMALL
GASTEIGER

@<TRIPOS>ATOM
      1 P          22.1467   72.9074   -3.6176 P.3     1  UNL1        0.2189
      2 O          22.1399   74.4698   -4.0050 O.3     1  UNL1       -0.4371
      3 O          23.0177   72.1690   -4.5583 O.2     1  UNL1       -0.5170
      4 O          22.7043   72.7291   -2.1172 O.3     1  UNL1       -0.3112
      5 C          23.5439   71.6419   -1.7242 C.3     1  UNL1        0.1811
      6 C          23.1404   72.0008    1.8318 C.3     1  UNL1        0.2383
      7 C          21.7783   72.4423    1.2385 C.3     1  UNL1        0.1895
      8 O          20.7096   72.1473    2.1399 O.3     1  UNL1       -0.3779
      9 C          21.6813   71.5705   -0.0374 C.3     1  UNL1        0.1713
     10 C          23.1388   71.1642   -0.3275 C.3     1  UNL1        0.1764
     11 O          23.9645   71.7961    0.6637 O.3     1  UNL1       -0.3308
     12 O          20.8788   70.4145    0.2081 O.3     1  UNL1       -0.3794
     13 H          19.8370   72.4055    1.8137 H       1  UNL1        0.2106
     14 H          19.9653   70.6138    0.4535 H       1  UNL1        0.2105
     15 N          23.6998   73.0556    2.6800 N.ar    1  UNL1       -0.2551
     16 C          23.3988   73.0868    3.9904 C.ar    1  UNL1        0.3323
     17 N          23.8985   74.0447    4.7934 N.ar    1  UNL1       -0.2743
     18 C          24.7158   74.9928    4.2916 C.ar    1  UNL1        0.2626
     19 C          25.0419   74.9714    2.9142 C.ar    1  UNL1        0.0795
     20 C          24.5299   73.9969    2.1333 C.ar    1  UNL1        0.0869
     21 O          22.6633   72.2382    4.4565 O.2     1  UNL1       -0.2464
     22 O          25.1691   75.8601    5.0174 O.2     1  UNL1       -0.2670
     23 H          23.6704   74.0532    5.7358 H       1  UNL1        0.1734
     24 O          20.6475   72.3260   -3.7048 O.3     1  UNL1       -0.2703
     25 P          20.0071   70.8571   -3.5456 P.3     1  UNL1        0.2208
     26 O          21.1859   69.7610   -3.4936 O.3     1  UNL1       -0.4371
     27 O          19.2207   70.7945   -2.2942 O.2     1  UNL1       -0.5170
     28 O          19.0452   70.5523   -4.8003 O.3     1  UNL1       -0.2865
     29 C          18.3911   71.5795   -5.5474 C.3     1  UNL1        0.2611
     30 C          16.9279   71.1927   -5.7759 C.3     1  UNL1        0.1582
     31 C          16.8725   69.9067   -6.6063 C.3     1  UNL1        0.1625
     32 C          17.6266   70.1274   -7.9204 C.3     1  UNL1        0.1686
     33 C          19.0632   70.5553   -7.6091 C.3     1  UNL1        0.1760
     34 O          15.5099   69.5781   -6.8869 O.3     1  UNL1       -0.3801
     35 O          16.9768   71.1495   -8.6782 O.3     1  UNL1       -0.3794
     36 O          19.0431   71.7391   -6.8090 O.3     1  UNL1       -0.3263
     37 H          15.3998   68.7723   -7.4101 H       1  UNL1        0.2105
     38 H          17.4023   71.3428   -9.5253 H       1  UNL1        0.2105
     39 C          16.2565   69.7372   -3.9406 C.2     1  UNL1        0.2231
     40 C          15.5838   69.5076   -2.6127 C.3     1  UNL1        0.0946
     41 N          16.2731   70.9702   -4.4843 N.am    1  UNL1       -0.2994
     42 O          16.7839   68.8117   -4.5216 O.2     1  UNL1       -0.2751
     43 H          15.8508   71.7101   -4.0206 H       1  UNL1        0.1496
     44 C          19.8063   70.8357   -8.9167 C.3     1  UNL1        0.1693
     45 O          20.7753   71.8643   -8.7036 O.3     1  UNL1       -0.3794
     46 H          21.2853   72.0944   -9.4923 H       1  UNL1        0.2105
@<TRIPOS>BOND
     1    29    30    1
     2    30    41    1
     3    30    31    1
     4    31    34    1
     5    31    32    1
     6    32    35    1
     7    32    33    1
     8    33    36    1
     9    33    44    1
    10    39    40    1
    11    39    42    2
    12    39    41   am
    13    41    43    1
    14    29    28    1
    15    34    37    1
    16    35    38    1
    17    29    36    1
    18    44    45    1
    19    45    46    1
    20    15     6    1
    21    15    16   ar
    22    16    21    2
    23    16    17   ar
    24    17    23    1
    25    17    18   ar
    26    18    19   ar
    27    19    20   ar
    28    15    20   ar
    29    18    22    2
    30     6     7    1
    31     6    11    1
    32     7     9    1
    33     7     8    1
    34     8    13    1
    35     9    10    1
    36     9    12    1
    37    10     5    1
    38    10    11    1
    39    12    14    1
    40     5     4    1
    41     4     1    1
    42     1     2    1
    43     1    24    1
    44     1     3    2
    45    24    25    1
    46    28    25    1
    47    25    26    1
    48    25    27    2
@<TRIPOS>MOLECULE
UD2
 46 48 0 0 0
SMALL
GASTEIGER

@<TRIPOS>ATOM
      1 P          21.8687   71.3359   -0.0190 P.3     1  UNL1        0.2189
      2 O          21.6077   70.0851    0.9601 O.3     1  UNL1       -0.4371
      3 O          23.3224   71.5944   -0.1132 O.2     1  UNL1       -0.5170
      4 O          21.2869   71.0017   -1.4830 O.3     1  UNL1       -0.3112
      5 C          21.1140   71.9946   -2.4958 C.3     1  UNL1        0.1811
      6 C          20.4841   71.0003   -5.8945 C.3     1  UNL1        0.2383
      7 C          21.0230   72.4492   -6.0059 C.3     1  UNL1        0.1895
      8 O          21.7338   72.6363   -7.2312 O.3     1  UNL1       -0.3779
      9 C          21.9814   72.5339   -4.7928 C.3     1  UNL1        0.1713
     10 C          21.5028   71.4088   -3.8555 C.3     1  UNL1        0.1764
     11 O          20.3571   70.7982   -4.4702 O.3     1  UNL1       -0.3308
     12 O          23.3295   72.3025   -5.2050 O.3     1  UNL1       -0.3794
     13 H          22.0898   73.5276   -7.3475 H       1  UNL1        0.2106
     14 H          23.6632   72.9485   -5.8421 H       1  UNL1        0.2105
     15 N          19.1801   70.8830   -6.5509 N.ar    1  UNL1       -0.2551
     16 C          19.1071   70.4126   -7.8088 C.ar    1  UNL1        0.3323
     17 N          17.9222   70.2944   -8.4366 N.ar    1  UNL1       -0.2743
     18 C          16.7827   70.6470   -7.8075 C.ar    1  UNL1        0.2626
     19 C          16.8447   71.1427   -6.4829 C.ar    1  UNL1        0.0795
     20 C          18.0458   71.2467   -5.8763 C.ar    1  UNL1        0.0869
     21 O          20.1265   70.0907   -8.3882 O.2     1  UNL1       -0.2464
     22 O          15.7095   70.5401   -8.3745 O.2     1  UNL1       -0.2670
     23 H          17.8876   69.9546   -9.3440 H       1  UNL1        0.1734
     24 O          21.1281   72.6403    0.5672 O.3     1  UNL1       -0.2703
     25 P          20.9955   73.2846    2.0369 P.3     1  UNL1        0.2208
     26 O          20.0815   74.6085    1.9614 O.3     1  UNL1       -0.4371
     27 O          20.3687   72.3046    2.9508 O.2     1  UNL1       -0.5170
     28 O          22.4583   73.6725    2.5868 O.3     1  UNL1       -0.2865
     29 C          23.0124   73.1199    3.7821 C.3     1  UNL1        0.2611
     30 C          22.7752   74.0826    4.9482 C.3     1  UNL1        0.1582
     31 C          23.5009   75.4016    4.6657 C.3     1  UNL1        0.1625
     32 C          24.9884   75.1159    4.4424 C.3     1  UNL1        0.1686
     33 C          25.1404   74.1131    3.2955 C.3     1  UNL1        0.1760
     34 O          23.3457   76.2803    5.7825 O.3     1  UNL1       -0.3801
     35 O          25.5538   74.5679    5.6346 O.3     1  UNL1       -0.3794
     36 O          24.4169   72.9211    3.6080 O.3     1  UNL1       -0.3263
     37 H          23.7805   77.1370    5.6718 H       1  UNL1        0.2105
     38 H          26.4964   74.3613    5.5648 H       1  UNL1        0.2105
     39 C          20.7794   74.3735    6.3156 C.2     1  UNL1        0.2231
     40 C          19.3029   74.6327    6.4625 C.3     1  UNL1        0.0946
     41 N          21.3389   74.3345    5.0902 N.am    1  UNL1       -0.2994
     42 O          21.4659   74.1995    7.3008 O.2     1  UNL1       -0.2751
     43 H          20.7903   74.4726    4.3022 H       1  UNL1        0.1496
     44 C          26.6206   73.7766    3.1053 C.3     1  UNL1        0.1693
     45 O          27.4210   74.8646    3.5721 O.3     1  UNL1       -0.3794
     46 H          28.3729   74.7204    3.4821 H       1  UNL1        0.2105
@<TRIPOS>BOND
     1    29    30    1
     2    30    41    1
     3    30    31    1
     4    31    34    1
     5    31    32    1
     6    32    35    1
     7    32    33    1
     8    33    36    1
     9    33    44    1
    10    39    40    1
    11    39    42    2
    12    39    41   am
    13    41    43    1
    14    29    28    1
    15    34    37    1
    16    35    38    1
    17    29    36    1
    18    44    45    1
    19    45    46    1
    20    15     6    1
    21    15    16   ar
    22    16    21    2
    23    16    17   ar
    24    17    23    1
    25    17    18   ar
    26    18    19   ar
    27    19    20   ar
    28    15    20   ar
    29    18    22    2
    30     6     7    1
    31     6    11    1
    32     7     9    1
    33     7     8    1
    34     8    13    1
    35     9    10    1
    36     9    12    1
    37    10     5    1
    38    10    11    1
    39    12    14    1
    40     5     4    1
    41     4     1    1
    42     1     2    1
    43     1    24    1
    44     1     3    2
    45    24    25    1
    46    28    25    1
    47    25    26    1
    48    25    27    2
@<TRIPOS>MOLECULE
UD2
 46 48 0 0 0
SMALL
GASTEIGER

@<TRIPOS>ATOM
      1 P          19.5442   72.0117   -1.7694 P.3     1  UNL1        0.2189
      2 O          19.4535   70.4488   -1.3945 O.3     1  UNL1       -0.4371
      3 O          18.1920   72.6102   -1.7223 O.2     1  UNL1       -0.5170
      4 O          20.5004   72.7622   -0.7129 O.3     1  UNL1       -0.3112
      5 C          21.5644   73.6302   -1.1079 C.3     1  UNL1        0.1811
      6 C          23.6497   72.7993    1.7024 C.3     1  UNL1        0.2383
      7 C          23.0244   71.4492    1.2684 C.3     1  UNL1        0.1895
      8 O          23.9113   70.3637    1.5457 O.3     1  UNL1       -0.3779
      9 C          22.8525   71.6460   -0.2577 C.3     1  UNL1        0.1713
     10 C          22.8665   73.1752   -0.4441 C.3     1  UNL1        0.1764
     11 O          22.9816   73.7643    0.8610 O.3     1  UNL1       -0.3308
     12 O          23.9397   71.0457   -0.9637 O.3     1  UNL1       -0.3794
     13 H          23.5646   69.4976    1.2925 H       1  UNL1        0.2106
     14 H          24.0142   70.0906   -0.8343 H       1  UNL1        0.2105
     15 N          23.3715   73.0661    3.1154 N.ar    1  UNL1       -0.2551
     16 C          22.2414   72.5955    3.6725 C.ar    1  UNL1        0.3323
     17 N          21.9600   72.8257    4.9686 N.ar    1  UNL1       -0.2743
     18 C          22.8148   73.5353    5.7331 C.ar    1  UNL1        0.2626
     19 C          24.0086   74.0358    5.1599 C.ar    1  UNL1        0.0795
     20 C          24.2672   73.7863    3.8590 C.ar    1  UNL1        0.0869
     21 O          21.4616   71.9539    2.9952 O.2     1  UNL1       -0.2464
     22 O          22.5614   73.7440    6.9065 O.2     1  UNL1       -0.2670
     23 H          21.1402   72.4802    5.3542 H       1  UNL1        0.1734
     24 O          20.1520   72.1739   -3.2518 O.3     1  UNL1       -0.2703
     25 P          20.5904   71.1338   -4.4002 P.3     1  UNL1        0.2208
     26 O          21.6166   71.8531   -5.4117 O.3     1  UNL1       -0.4371
     27 O          21.2487   69.9629   -3.7805 O.2     1  UNL1       -0.5170
     28 O          19.2867   70.6498   -5.2119 O.3     1  UNL1       -0.2865
     29 C          18.4337   71.5492   -5.9224 C.3     1  UNL1        0.2611
     30 C          16.9931   71.0346   -5.8725 C.3     1  UNL1        0.1582
     31 C          16.9215   69.6743   -6.5731 C.3     1  UNL1        0.1625
     32 C          17.4352   69.8233   -8.0077 C.3     1  UNL1        0.1686
     33 C          18.8592   70.3848   -7.9753 C.3     1  UNL1        0.1760
     34 O          15.5664   69.2200   -6.5958 O.3     1  UNL1       -0.3801
     35 O          16.5852   70.7169   -8.7290 O.3     1  UNL1       -0.3794
     36 O          18.8609   71.6351   -7.2835 O.3     1  UNL1       -0.3263
     37 H          15.4468   68.3618   -7.0251 H       1  UNL1        0.2105
     38 H          16.8523   70.8592   -9.6480 H       1  UNL1        0.2105
     39 C          16.6927   69.6977   -3.8575 C.2     1  UNL1        0.2231
     40 C          16.2619   69.5472   -2.4220 C.3     1  UNL1        0.0946
     41 N          16.5737   70.8889   -4.4763 N.am    1  UNL1       -0.2994
     42 O          17.1471   68.7461   -4.4575 O.2     1  UNL1       -0.2751
     43 H          16.2095   71.6498   -3.9972 H       1  UNL1        0.1496
     44 C          19.3578   70.5928   -9.4066 C.3     1  UNL1        0.1693
     45 O          18.4184   71.3929  -10.1275 O.3     1  UNL1       -0.3794
     46 H          18.6704   71.5657  -11.0449 H       1  UNL1        0.2105
@<TRIPOS>BOND
     1    29    30    1
     2    30    41    1
     3    30    31    1
     4    31    34    1
     5    31    32    1
     6    32    35    1
     7    32    33    1
     8    33    36    1
     9    33    44    1
    10    39    40    1
    11    39    42    2
    12    39    41   am
    13    41    43    1
    14    29    28    1
    15    34    37    1
    16    35    38    1
    17    29    36    1
    18    44    45    1
    19    45    46    1
    20    15     6    1
    21    15    16   ar
    22    16    21    2
    23    16    17   ar
    24    17    23    1
    25    17    18   ar
    26    18    19   ar
    27    19    20   ar
    28    15    20   ar
    29    18    22    2
    30     6     7    1
    31     6    11    1
    32     7     9    1
    33     7     8    1
    34     8    13    1
    35     9    10    1
    36     9    12    1
    37    10     5    1
    38    10    11    1
    39    12    14    1
    40     5     4    1
    41     4     1    1
    42     1     2    1
    43     1    24    1
    44     1     3    2
    45    24    25    1
    46    28    25    1
    47    25    26    1
    48    25    27    2
@<TRIPOS>MOLECULE
UD2
 46 48 0 0 0
SMALL
GASTEIGER

@<TRIPOS>ATOM
      1 P          19.4368   73.4574   -1.7664 P.3     1  UNL1        0.2189
      2 O          18.0474   72.9993   -1.0949 O.3     1  UNL1       -0.4371
      3 O          19.4028   74.9133   -2.0277 O.2     1  UNL1       -0.5170
      4 O          20.6531   73.1199   -0.7662 O.3     1  UNL1       -0.3112
      5 C          22.0053   72.9807   -1.2061 C.3     1  UNL1        0.1811
      6 C          24.2534   71.9522    1.4064 C.3     1  UNL1        0.2383
      7 C          22.8704   72.0513    2.0989 C.3     1  UNL1        0.1895
      8 O          22.7670   71.1097    3.1687 O.3     1  UNL1       -0.3779
      9 C          21.9026   71.6866    0.9466 C.3     1  UNL1        0.1713
     10 C          22.7224   71.9497   -0.3310 C.3     1  UNL1        0.1764
     11 O          24.0008   72.4609    0.0786 O.3     1  UNL1       -0.3308
     12 O          21.5280   70.3103    1.0265 O.3     1  UNL1       -0.3794
     13 H          21.9196   71.1336    3.6335 H       1  UNL1        0.2106
     14 H          21.0601   70.0758    1.8392 H       1  UNL1        0.2105
     15 N          25.2383   72.7853    2.0998 N.ar    1  UNL1       -0.2551
     16 C          26.3115   72.2115    2.6724 C.ar    1  UNL1        0.3323
     17 N          27.2325   72.9526    3.3163 N.ar    1  UNL1       -0.2743
     18 C          27.0919   74.2915    3.3953 C.ar    1  UNL1        0.2626
     19 C          25.9676   74.9089    2.7961 C.ar    1  UNL1        0.0795
     20 C          25.0621   74.1418    2.1533 C.ar    1  UNL1        0.0869
     21 O          26.4513   71.0053    2.6089 O.2     1  UNL1       -0.2464
     22 O          27.9249   74.9635    3.9774 O.2     1  UNL1       -0.2670
     23 H          27.9997   72.5227    3.7247 H       1  UNL1        0.1734
     24 O          19.6489   72.6676   -3.1537 O.3     1  UNL1       -0.2703
     25 P          19.9425   71.1300   -3.5310 P.3     1  UNL1        0.2208
     26 O          21.4742   70.9771   -4.0044 O.3     1  UNL1       -0.4371
     27 O          19.7056   70.2770   -2.3459 O.2     1  UNL1       -0.5170
     28 O          18.9632   70.6742   -4.7252 O.3     1  UNL1       -0.2865
     29 C          18.2410   71.6021   -5.5368 C.3     1  UNL1        0.2611
     30 C          16.8119   71.0951   -5.7447 C.3     1  UNL1        0.1582
     31 C          16.8570   69.7594   -6.4932 C.3     1  UNL1        0.1625
     32 C          17.6025   69.9530   -7.8166 C.3     1  UNL1        0.1686
     33 C          19.0016   70.5041   -7.5287 C.3     1  UNL1        0.1760
     34 O          15.5243   69.3146   -6.7565 O.3     1  UNL1       -0.3801
     35 O          16.8850   70.8755   -8.6385 O.3     1  UNL1       -0.3794
     36 O          18.8889   71.7306   -6.8041 O.3     1  UNL1       -0.3263
     37 H          15.4774   68.4719   -7.2286 H       1  UNL1        0.2105
     38 H          17.3014   71.0466   -9.4948 H       1  UNL1        0.2105
     39 C          16.2274   69.7082   -3.8284 C.2     1  UNL1        0.2231
     40 C          15.5636   69.5126   -2.4905 C.3     1  UNL1        0.0946
     41 N          16.1658   70.9056   -4.4435 N.am    1  UNL1       -0.2994
     42 O          16.8180   68.7873   -4.3531 O.2     1  UNL1       -0.2751
     43 H          15.6929   71.6419   -4.0248 H       1  UNL1        0.1496
     44 C          19.7316   70.7567   -8.8492 C.3     1  UNL1        0.1693
     45 O          20.6614   71.8292   -8.6827 O.3     1  UNL1       -0.3794
     46 H          21.1612   72.0447   -9.4820 H       1  UNL1        0.2105
@<TRIPOS>BOND
     1    29    30    1
     2    30    41    1
     3    30    31    1
     4    31    34    1
     5    31    32    1
     6    32    35    1
     7    32    33    1
     8    33    36    1
     9    33    44    1
    10    39    40    1
    11    39    42    2
    12    39    41   am
    13    41    43    1
    14    29    28    1
    15    34    37    1
    16    35    38    1
    17    29    36    1
    18    44    45    1
    19    45    46    1
    20    15     6    1
    21    15    16   ar
    22    16    21    2
    23    16    17   ar
    24    17    23    1
    25    17    18   ar
    26    18    19   ar
    27    19    20   ar
    28    15    20   ar
    29    18    22    2
    30     6     7    1
    31     6    11    1
    32     7     9    1
    33     7     8    1
    34     8    13    1
    35     9    10    1
    36     9    12    1
    37    10     5    1
    38    10    11    1
    39    12    14    1
    40     5     4    1
    41     4     1    1
    42     1     2    1
    43     1    24    1
    44     1     3    2
    45    24    25    1
    46    28    25    1
    47    25    26    1
    48    25    27    2
