@<TRIPOS>MOLECULE
UD1
 46 48 0 0 0
SMALL
GASTEIGER

@<TRIPOS>ATOM
      1 P          22.2075   70.9112   -2.5608 P.3     1  UNL1        0.2189
      2 O          23.4675   70.5986   -3.2704 O.2     1  UNL1       -0.5170
      3 O          21.5824   69.5566   -1.9551 O.3     1  UNL1       -0.4371
      4 O          21.1607   71.5698   -3.5920 O.3     1  UNL1       -0.3112
      5 C          20.1819   72.2536   -2.8080 C.3     1  UNL1        0.1811
      6 C          17.9300   71.3027   -5.4447 C.3     1  UNL1        0.2383
      7 C          18.0370   70.0411   -4.5518 C.3     1  UNL1        0.1895
      8 O          16.8239   69.2884   -4.5830 O.3     1  UNL1       -0.3779
      9 C          18.2713   70.6553   -3.1471 C.3     1  UNL1        0.1713
     10 C          18.8017   72.0717   -3.4416 C.3     1  UNL1        0.1764
     11 O          18.8978   72.2062   -4.8698 O.3     1  UNL1       -0.3308
     12 O          17.0444   70.7154   -2.4164 O.3     1  UNL1       -0.3794
     13 H          16.9560   68.5202   -4.0103 H       1  UNL1        0.2106
     14 H          16.7339   69.8055   -2.3167 H       1  UNL1        0.2105
     15 N          18.2769   70.9886   -6.8312 N.ar    1  UNL1       -0.2551
     16 C          17.3052   70.6807   -7.7078 C.ar    1  UNL1        0.3323
     17 N          17.5948   70.3914   -8.9902 N.ar    1  UNL1       -0.2743
     18 C          18.8741   70.3972   -9.4159 C.ar    1  UNL1        0.2626
     19 C          19.9075   70.7138   -8.5022 C.ar    1  UNL1        0.0795
     20 C          19.5884   71.0052   -7.2229 C.ar    1  UNL1        0.0869
     21 O          16.1465   70.6713   -7.3390 O.2     1  UNL1       -0.2464
     22 O          19.1375   70.1312  -10.5740 O.2     1  UNL1       -0.2670
     23 H          16.8809   70.1762   -9.6101 H       1  UNL1        0.1734
     24 O          22.5069   71.9464   -1.3660 O.3     1  UNL1       -0.2703
     25 P          22.4882   71.0970    0.0006 P.3     1  UNL1        0.2208
     26 O          23.5453   70.0631   -0.0469 O.2     1  UNL1       -0.5170
     27 O          21.0528   70.3884    0.1732 O.3     1  UNL1       -0.4371
     28 O          22.7537   72.0790    1.2479 O.3     1  UNL1       -0.2865
     29 C          22.0165   73.2767    0.9967 C.3     1  UNL1        0.2611
     30 C          22.9838   74.4596    0.9254 C.3     1  UNL1        0.1582
     31 C          23.7483   74.5624    2.2500 C.3     1  UNL1        0.1625
     32 C          22.7347   74.6173    3.3979 C.3     1  UNL1        0.1686
     33 C          21.7879   73.4207    3.2844 C.3     1  UNL1        0.1760
     34 O          24.5444   75.7489    2.2525 O.3     1  UNL1       -0.3801
     35 O          23.4250   74.5655    4.6479 O.3     1  UNL1       -0.3794
     36 O          21.0766   73.4842    2.0489 O.3     1  UNL1       -0.3263
     37 H          25.0069   75.7732    3.1015 H       1  UNL1        0.2105
     38 H          22.7510   74.6017    5.3414 H       1  UNL1        0.2105
     39 C          24.0306   75.1658   -1.1578 C.2     1  UNL1        0.2231
     40 C          25.0048   74.9522   -2.2881 C.3     1  UNL1        0.0946
     41 N          23.9304   74.2528   -0.1726 N.am    1  UNL1       -0.2994
     42 O          23.3361   76.1594   -1.1356 O.2     1  UNL1       -0.2751
     43 H          24.4859   73.4574   -0.1902 H       1  UNL1        0.1496
     44 C          20.7916   73.4483    4.4453 C.3     1  UNL1        0.1693
     45 O          21.4238   72.9550    5.6281 O.3     1  UNL1       -0.3794
     46 H          20.7634   72.9889    6.3333 H       1  UNL1        0.2105
@<TRIPOS>BOND
     1    29    30    1
     2    29    28    1
     3    29    36    1
     4    30    31    1
     5    30    41    1
     6    31    32    1
     7    31    34    1
     8    32    33    1
     9    32    35    1
    10    33    44    1
    11    33    36    1
    12    44    45    1
    13    39    40    1
    14    39    41   am
    15    39    42    2
    16    41    43    1
    17    28    25    1
    18    34    37    1
    19    35    38    1
    20    45    46    1
    21    15    16   ar
    22    15    20   ar
    23    15     6    1
    24    16    17   ar
    25    16    21    2
    26    17    18   ar
    27    17    23    1
    28    18    19   ar
    29    18    22    2
    30    19    20   ar
    31     6     7    1
    32     6    11    1
    33     7     8    1
    34     7     9    1
    35     8    13    1
    36     9    10    1
    37     9    12    1
    38    10    11    1
    39    10     5    1
    40    12    14    1
    41     5     4    1
    42     4     1    1
    43     1     2    2
    44     1     3    1
    45     1    24    1
    46    24    25    1
    47    25    26    2
    48    25    27    1
@<TRIPOS>MOLECULE
UD1
 46 48 0 0 0
SMALL
GASTEIGER

@<TRIPOS>ATOM
      1 P          21.6194   70.6878   -0.8079 P.3     1  UNL1        0.2189
      2 O          22.9992   71.1965   -0.9692 O.2     1  UNL1       -0.5170
      3 O          21.4582   69.3068   -1.6200 O.3     1  UNL1       -0.4371
      4 O          20.5775   71.7723   -1.3834 O.3     1  UNL1       -0.3112
      5 C          20.6378   71.6888   -2.8081 C.3     1  UNL1        0.1811
      6 C          18.1696   71.2124   -5.3788 C.3     1  UNL1        0.2383
      7 C          18.1333   69.8992   -4.5576 C.3     1  UNL1        0.1895
      8 O          16.8257   69.3253   -4.5689 O.3     1  UNL1       -0.3779
      9 C          18.5084   70.3934   -3.1363 C.3     1  UNL1        0.1713
     10 C          19.2214   71.7370   -3.3831 C.3     1  UNL1        0.1764
     11 O          19.2778   71.9384   -4.8056 O.3     1  UNL1       -0.3308
     12 O          17.3329   70.5814   -2.3454 O.3     1  UNL1       -0.3794
     13 H          16.8709   68.5147   -4.0432 H       1  UNL1        0.2106
     14 H          16.9012   69.7193   -2.2775 H       1  UNL1        0.2105
     15 N          18.4124   70.9332   -6.7945 N.ar    1  UNL1       -0.2551
     16 C          17.3717   70.7501   -7.6256 C.ar    1  UNL1        0.3323
     17 N          17.5652   70.4957   -8.9333 N.ar    1  UNL1       -0.2743
     18 C          18.8154   70.4109   -9.4312 C.ar    1  UNL1        0.2626
     19 C          19.9202   70.5956   -8.5663 C.ar    1  UNL1        0.0795
     20 C          19.6974   70.8548   -7.2600 C.ar    1  UNL1        0.0869
     21 O          16.2382   70.8235   -7.1915 O.2     1  UNL1       -0.2464
     22 O          18.9916   70.1762  -10.6124 O.2     1  UNL1       -0.2670
     23 H          16.8028   70.3710   -9.5193 H       1  UNL1        0.1734
     24 O          21.3206   70.4321    0.7522 O.3     1  UNL1       -0.2703
     25 P          21.7543   71.7701    1.5340 P.3     1  UNL1        0.2208
     26 O          23.2126   71.7452    1.7826 O.2     1  UNL1       -0.5170
     27 O          20.9724   71.8488    2.9392 O.3     1  UNL1       -0.4371
     28 O          21.3839   73.0580    0.6426 O.3     1  UNL1       -0.2865
     29 C          22.4923   73.9552    0.7299 C.3     1  UNL1        0.2611
     30 C          22.1381   75.1050    1.6746 C.3     1  UNL1        0.1582
     31 C          20.8970   75.8286    1.1402 C.3     1  UNL1        0.1625
     32 C          21.1554   76.2358   -0.3143 C.3     1  UNL1        0.1686
     33 C          21.5809   74.9998   -1.1098 C.3     1  UNL1        0.1760
     34 O          20.6446   76.9927    1.9292 O.3     1  UNL1       -0.3801
     35 O          19.9605   76.7804   -0.8776 O.3     1  UNL1       -0.3794
     36 O          22.7892   74.4693   -0.5666 O.3     1  UNL1       -0.3263
     37 H          19.8575   77.4158    1.5591 H       1  UNL1        0.2105
     38 H          20.1671   77.0222   -1.7916 H       1  UNL1        0.2105
     39 C          22.8013   74.6334    3.9707 C.2     1  UNL1        0.2231
     40 C          22.5136   74.0855    5.3452 C.3     1  UNL1        0.0946
     41 N          21.8589   74.5734    3.0102 N.am    1  UNL1       -0.2994
     42 O          23.8818   75.1277    3.7290 O.2     1  UNL1       -0.2751
     43 H          20.9942   74.1777    3.2033 H       1  UNL1        0.1496
     44 C          21.8100   75.3896   -2.5715 C.3     1  UNL1        0.1693
     45 O          22.2987   76.7309   -2.6362 O.3     1  UNL1       -0.3794
     46 H          22.4291   76.9364   -3.5719 H       1  UNL1        0.2105
@<TRIPOS>BOND
     1    29    30    1
     2    29    28    1
     3    29    36    1
     4    30    31    1
     5    30    41    1
     6    31    32    1
     7    31    34    1
     8    32    33    1
     9    32    35    1
    10    33    44    1
    11    33    36    1
    12    44    45    1
    13    39    40    1
    14    39    41   am
    15    39    42    2
    16    41    43    1
    17    28    25    1
    18    34    37    1
    19    35    38    1
    20    45    46    1
    21    15    16   ar
    22    15    20   ar
    23    15     6    1
    24    16    17   ar
    25    16    21    2
    26    17    18   ar
    27    17    23    1
    28    18    19   ar
    29    18    22    2
    30    19    20   ar
    31     6     7    1
    32     6    11    1
    33     7     8    1
    34     7     9    1
    35     8    13    1
    36     9    10    1
    37     9    12    1
    38    10    11    1
    39    10     5    1
    40    12    14    1
    41     5     4    1
    42     4     1    1
    43     1     2    2
    44     1     3    1
    45     1    24    1
    46    24    25    1
    47    25    26    2
    48    25    27    1
@<TRIPOS>MOLECULE
UD1
 46 48 0 0 0
SMALL
GASTEIGER

@<TRIPOS>ATOM
      1 P          22.0228   70.3967   -0.5004 P.3     1  UNL1        0.2189
      2 O          22.9358   69.3774    0.0619 O.2     1  UNL1       -0.5170
      3 O          21.3366   71.2228    0.6992 O.3     1  UNL1       -0.4371
      4 O          20.8806   69.6706   -1.3727 O.3     1  UNL1       -0.3112
      5 C          21.0237   70.1393   -2.7144 C.3     1  UNL1        0.1811
      6 C          18.5048   70.8793   -5.1709 C.3     1  UNL1        0.2383
      7 C          18.0398   69.5493   -4.5267 C.3     1  UNL1        0.1895
      8 O          16.6154   69.4487   -4.5333 O.3     1  UNL1       -0.3779
      9 C          18.5784   69.6831   -3.0786 C.3     1  UNL1        0.1713
     10 C          19.6984   70.7354   -3.1915 C.3     1  UNL1        0.1764
     11 O          19.8002   71.1076   -4.5765 O.3     1  UNL1       -0.3308
     12 O          17.5454   70.1348   -2.2003 O.3     1  UNL1       -0.3794
     13 H          16.3924   68.6025   -4.1212 H       1  UNL1        0.2106
     14 H          16.8498   69.4640   -2.2190 H       1  UNL1        0.2105
     15 N          18.6205   70.7406   -6.6231 N.ar    1  UNL1       -0.2551
     16 C          17.5134   70.7677   -7.3853 C.ar    1  UNL1        0.3323
     17 N          17.5902   70.6463   -8.7238 N.ar    1  UNL1       -0.2743
     18 C          18.7869   70.4853   -9.3239 C.ar    1  UNL1        0.2626
     19 C          19.9599   70.4489   -8.5329 C.ar    1  UNL1        0.0795
     20 C          19.8545   70.5784   -7.1930 C.ar    1  UNL1        0.0869
     21 O          16.4269   70.9123   -6.8588 O.2     1  UNL1       -0.2464
     22 O          18.8571   70.3707  -10.5336 O.2     1  UNL1       -0.2670
     23 H          16.7818   70.6729   -9.2586 H       1  UNL1        0.1734
     24 O          22.8556   71.4038   -1.4391 O.3     1  UNL1       -0.2703
     25 P          22.3322   72.8888   -1.1072 P.3     1  UNL1        0.2208
     26 O          23.2081   73.5036   -0.0857 O.2     1  UNL1       -0.5170
     27 O          20.8249   72.8143   -0.5460 O.3     1  UNL1       -0.4371
     28 O          22.3612   73.7812   -2.4463 O.3     1  UNL1       -0.2865
     29 C          23.5437   73.4177   -3.1610 C.3     1  UNL1        0.2611
     30 C          24.4510   74.6423   -3.2922 C.3     1  UNL1        0.1582
     31 C          23.6924   75.7515   -4.0296 C.3     1  UNL1        0.1625
     32 C          23.1632   75.1874   -5.3524 C.3     1  UNL1        0.1686
     33 C          22.3503   73.9233   -5.0655 C.3     1  UNL1        0.1760
     34 O          24.5757   76.8439   -4.2903 O.3     1  UNL1       -0.3801
     35 O          22.3300   76.1593   -5.9871 O.3     1  UNL1       -0.3794
     36 O          23.1865   72.9403   -4.4564 O.3     1  UNL1       -0.3263
     37 H          24.0584   77.5170   -4.7536 H       1  UNL1        0.2105
     38 H          22.0184   75.7638   -6.8135 H       1  UNL1        0.2105
     39 C          26.1324   75.3231   -1.6662 C.2     1  UNL1        0.2231
     40 C          26.5269   75.8068   -0.2942 C.3     1  UNL1        0.0946
     41 N          24.8347   75.1127   -1.9596 N.am    1  UNL1       -0.2994
     42 O          26.9834   75.1225   -2.5063 O.2     1  UNL1       -0.2751
     43 H          24.1535   75.2729   -1.2874 H       1  UNL1        0.1496
     44 C          21.7899   73.3700   -6.3773 C.3     1  UNL1        0.1693
     45 O          22.8178   72.6633   -7.0745 O.3     1  UNL1       -0.3794
     46 H          22.4241   72.3322   -7.8930 H       1  UNL1        0.2105
@<TRIPOS>BOND
     1    29    30    1
     2    29    28    1
     3    29    36    1
     4    30    31    1
     5    30    41    1
     6    31    32    1
     7    31    34    1
     8    32    33    1
     9    32    35    1
    10    33    44    1
    11    33    36    1
    12    44    45    1
    13    39    40    1
    14    39    41   am
    15    39    42    2
    16    41    43    1
    17    28    25    1
    18    34    37    1
    19    35    38    1
    20    45    46    1
    21    15    16   ar
    22    15    20   ar
    23    15     6    1
    24    16    17   ar
    25    16    21    2
    26    17    18   ar
    27    17    23    1
    28    18    19   ar
    29    18    22    2
    30    19    20   ar
    31     6     7    1
    32     6    11    1
    33     7     8    1
    34     7     9    1
    35     8    13    1
    36     9    10    1
    37     9    12    1
    38    10    11    1
    39    10     5    1
    40    12    14    1
    41     5     4    1
    42     4     1    1
    43     1     2    2
    44     1     3    1
    45     1    24    1
    46    24    25    1
    47    25    26    2
    48    25    27    1
@<TRIPOS>MOLECULE
UD1
 46 48 0 0 0
SMALL
GASTEIGER

@<TRIPOS>ATOM
      1 P          22.8533   71.5296   -1.9124 P.3     1  UNL1        0.2189
      2 O          23.2865   70.8400   -3.1475 O.2     1  UNL1       -0.5170
      3 O          23.2142   70.6189   -0.6345 O.3     1  UNL1       -0.4371
      4 O          21.2625   71.7734   -1.9643 O.3     1  UNL1       -0.3112
      5 C          20.6975   70.6693   -2.6730 C.3     1  UNL1        0.1811
      6 C          18.2718   70.9851   -5.3080 C.3     1  UNL1        0.2383
      7 C          17.9299   69.6372   -4.6252 C.3     1  UNL1        0.1895
      8 O          16.5314   69.3613   -4.7104 O.3     1  UNL1       -0.3779
      9 C          18.3538   69.8994   -3.1566 C.3     1  UNL1        0.1713
     10 C          19.3437   71.0760   -3.2570 C.3     1  UNL1        0.1764
     11 O          19.4892   71.3972   -4.6509 O.3     1  UNL1       -0.3308
     12 O          17.2192   70.2580   -2.3648 O.3     1  UNL1       -0.3794
     13 H          16.3858   68.5129   -4.2693 H       1  UNL1        0.2106
     14 H          16.6122   69.5063   -2.3900 H       1  UNL1        0.2105
     15 N          18.4970   70.7986   -6.7419 N.ar    1  UNL1       -0.2551
     16 C          17.4464   70.7288   -7.5778 C.ar    1  UNL1        0.3323
     17 N          17.6238   70.5616   -8.9017 N.ar    1  UNL1       -0.2743
     18 C          18.8670   70.4515   -9.4121 C.ar    1  UNL1        0.2626
     19 C          19.9817   70.5172   -8.5427 C.ar    1  UNL1        0.0795
     20 C          19.7753   70.6908   -7.2196 C.ar    1  UNL1        0.0869
     21 O          16.3190   70.8265   -7.1326 O.2     1  UNL1       -0.2464
     22 O          19.0284   70.2955  -10.6083 O.2     1  UNL1       -0.2670
     23 H          16.8547   70.5182   -9.4906 H       1  UNL1        0.1734
     24 O          23.6094   72.9450   -1.7946 O.3     1  UNL1       -0.2703
     25 P          23.3099   73.7468   -3.1572 P.3     1  UNL1        0.2208
     26 O          21.8484   73.9012   -3.3275 O.2     1  UNL1       -0.5170
     27 O          23.9114   72.9277   -4.4060 O.3     1  UNL1       -0.4371
     28 O          23.9986   75.1999   -3.0887 O.3     1  UNL1       -0.2865
     29 C          25.1544   75.0721   -2.2587 C.3     1  UNL1        0.2611
     30 C          25.2574   76.2943   -1.3446 C.3     1  UNL1        0.1582
     31 C          25.3473   77.5587   -2.2065 C.3     1  UNL1        0.1625
     32 C          26.4988   77.3913   -3.2036 C.3     1  UNL1        0.1686
     33 C          26.3004   76.0877   -3.9798 C.3     1  UNL1        0.1760
     34 O          25.5938   78.6912   -1.3710 O.3     1  UNL1       -0.3801
     35 O          26.5078   78.4937   -4.1127 O.3     1  UNL1       -0.3794
     36 O          26.3183   74.9820   -3.0777 O.3     1  UNL1       -0.3263
     37 H          25.6425   79.4623   -1.9528 H       1  UNL1        0.2105
     38 H          27.2457   78.3481   -4.7216 H       1  UNL1        0.2105
     39 C          24.1168   75.8878    0.7691 C.2     1  UNL1        0.2231
     40 C          22.8956   75.9627    1.6496 C.3     1  UNL1        0.0946
     41 N          24.0715   76.3673   -0.4887 N.am    1  UNL1       -0.2994
     42 O          25.1405   75.3951    1.1929 O.2     1  UNL1       -0.2751
     43 H          23.2524   76.7615   -0.8282 H       1  UNL1        0.1496
     44 C          27.4281   75.9271   -5.0013 C.3     1  UNL1        0.1693
     45 O          27.8186   74.5541   -5.0685 O.3     1  UNL1       -0.3794
     46 H          28.5293   74.4970   -5.7215 H       1  UNL1        0.2105
@<TRIPOS>BOND
     1    29    30    1
     2    29    28    1
     3    29    36    1
     4    30    31    1
     5    30    41    1
     6    31    32    1
     7    31    34    1
     8    32    33    1
     9    32    35    1
    10    33    44    1
    11    33    36    1
    12    44    45    1
    13    39    40    1
    14    39    41   am
    15    39    42    2
    16    41    43    1
    17    28    25    1
    18    34    37    1
    19    35    38    1
    20    45    46    1
    21    15    16   ar
    22    15    20   ar
    23    15     6    1
    24    16    17   ar
    25    16    21    2
    26    17    18   ar
    27    17    23    1
    28    18    19   ar
    29    18    22    2
    30    19    20   ar
    31     6     7    1
    32     6    11    1
    33     7     8    1
    34     7     9    1
    35     8    13    1
    36     9    10    1
    37     9    12    1
    38    10    11    1
    39    10     5    1
    40    12    14    1
    41     5     4    1
    42     4     1    1
    43     1     2    2
    44     1     3    1
    45     1    24    1
    46    24    25    1
    47    25    26    2
    48    25    27    1
@<TRIPOS>MOLECULE
UD1
 46 48 0 0 0
SMALL
GASTEIGER

@<TRIPOS>ATOM
      1 P          22.3564   71.8950   -1.0242 P.3     1  UNL1        0.2189
      2 O          23.2793   73.0330   -0.8191 O.2     1  UNL1       -0.5170
      3 O          23.1769   70.5134   -0.9224 O.3     1  UNL1       -0.4371
      4 O          21.6792   72.0098   -2.4806 O.3     1  UNL1       -0.3112
      5 C          20.9031   70.8258   -2.6706 C.3     1  UNL1        0.1811
      6 C          18.3711   71.0585   -5.2127 C.3     1  UNL1        0.2383
      7 C          18.0778   69.7176   -4.4942 C.3     1  UNL1        0.1895
      8 O          16.6815   69.4190   -4.5194 O.3     1  UNL1       -0.3779
      9 C          18.5547   70.0119   -3.0481 C.3     1  UNL1        0.1713
     10 C          19.5211   71.2015   -3.2074 C.3     1  UNL1        0.1764
     11 O          19.6066   71.5006   -4.6112 O.3     1  UNL1       -0.3308
     12 O          17.4465   70.3669   -2.2183 O.3     1  UNL1       -0.3794
     13 H          16.5669   68.5763   -4.0587 H       1  UNL1        0.2106
     14 H          16.8511   69.6057   -2.2068 H       1  UNL1        0.2105
     15 N          18.5427   70.8504   -6.6510 N.ar    1  UNL1       -0.2551
     16 C          17.4628   70.7957   -7.4498 C.ar    1  UNL1        0.3323
     17 N          17.5910   70.6093   -8.7769 N.ar    1  UNL1       -0.2743
     18 C          18.8131   70.4643   -9.3277 C.ar    1  UNL1        0.2626
     19 C          19.9582   70.5139   -8.4975 C.ar    1  UNL1        0.0795
     20 C          19.8011   70.7074   -7.1704 C.ar    1  UNL1        0.0869
     21 O          16.3539   70.9248   -6.9679 O.2     1  UNL1       -0.2464
     22 O          18.9300   70.2910  -10.5267 O.2     1  UNL1       -0.2670
     23 H          16.8015   70.5772   -9.3388 H       1  UNL1        0.1734
     24 O          21.2099   71.9238    0.1043 O.3     1  UNL1       -0.2703
     25 P          21.9542   71.8097    1.5263 P.3     1  UNL1        0.2208
     26 O          22.7078   70.5380    1.5879 O.2     1  UNL1       -0.5170
     27 O          20.8621   71.8432    2.7088 O.3     1  UNL1       -0.4371
     28 O          22.9710   73.0450    1.7018 O.3     1  UNL1       -0.2865
     29 C          22.2989   74.0258    2.4939 C.3     1  UNL1        0.2611
     30 C          22.2875   75.3591    1.7442 C.3     1  UNL1        0.1582
     31 C          23.7319   75.7881    1.4627 C.3     1  UNL1        0.1625
     32 C          24.5091   75.7892    2.7833 C.3     1  UNL1        0.1686
     33 C          24.3554   74.4222    3.4532 C.3     1  UNL1        0.1760
     34 O          23.7401   77.1003    0.8973 O.3     1  UNL1       -0.3801
     35 O          25.8912   76.0433    2.5242 O.3     1  UNL1       -0.3794
     36 O          22.9787   74.1771    3.7382 O.3     1  UNL1       -0.3263
     37 H          24.6658   77.3293    0.7363 H       1  UNL1        0.2105
     38 H          26.3424   76.0345    3.3803 H       1  UNL1        0.2105
     39 C          20.2945   75.6332    0.3706 C.2     1  UNL1        0.2231
     40 C          19.5525   75.4726   -0.9317 C.3     1  UNL1        0.0946
     41 N          21.5665   75.2037    0.4792 N.am    1  UNL1       -0.2994
     42 O          19.7461   76.1487    1.3212 O.2     1  UNL1       -0.2751
     43 H          22.0055   74.7910   -0.2814 H       1  UNL1        0.1496
     44 C          25.1548   74.4020    4.7576 C.3     1  UNL1        0.1693
     45 O          24.5785   75.3246    5.6843 O.3     1  UNL1       -0.3794
     46 H          25.1108   75.2811    6.4902 H       1  UNL1        0.2105
@<TRIPOS>BOND
     1    29    30    1
     2    29    28    1
     3    29    36    1
     4    30    31    1
     5    30    41    1
     6    31    32    1
     7    31    34    1
     8    32    33    1
     9    32    35    1
    10    33    44    1
    11    33    36    1
    12    44    45    1
    13    39    40    1
    14    39    41   am
    15    39    42    2
    16    41    43    1
    17    28    25    1
    18    34    37    1
    19    35    38    1
    20    45    46    1
    21    15    16   ar
    22    15    20   ar
    23    15     6    1
    24    16    17   ar
    25    16    21    2
    26    17    18   ar
    27    17    23    1
    28    18    19   ar
    29    18    22    2
    30    19    20   ar
    31     6     7    1
    32     6    11    1
    33     7     8    1
    34     7     9    1
    35     8    13    1
    36     9    10    1
    37     9    12    1
    38    10    11    1
    39    10     5    1
    40    12    14    1
    41     5     4    1
    42     4     1    1
    43     1     2    2
    44     1     3    1
    45     1    24    1
    46    24    25    1
    47    25    26    2
    48    25    27    1
@<TRIPOS>MOLECULE
UD1
 46 48 0 0 0
SMALL
GASTEIGER

@<TRIPOS>ATOM
      1 P          19.9391   74.3261   -3.4348 P.3     1  UNL1        0.2189
      2 O          19.5687   75.7042   -3.0446 O.2     1  UNL1       -0.5170
      3 O          18.6973   73.6288   -4.1860 O.3     1  UNL1       -0.4371
      4 O          20.3130   73.4782   -2.1179 O.3     1  UNL1       -0.3112
      5 C          21.2634   74.2516   -1.3838 C.3     1  UNL1        0.1811
      6 C          22.8281   72.6235    1.4141 C.3     1  UNL1        0.2383
      7 C          21.7441   71.6235    0.9397 C.3     1  UNL1        0.1895
      8 O          22.1451   70.2766    1.1933 O.3     1  UNL1       -0.3779
      9 C          21.6853   71.9058   -0.5841 C.3     1  UNL1        0.1713
     10 C          22.2822   73.3193   -0.7264 C.3     1  UNL1        0.1764
     11 O          22.5929   73.7895    0.5964 O.3     1  UNL1       -0.3308
     12 O          22.4699   70.9500   -1.3007 O.3     1  UNL1       -0.3794
     13 H          21.4302   69.7072    0.8768 H       1  UNL1        0.2106
     14 H          22.0827   70.0822   -1.1240 H       1  UNL1        0.2105
     15 N          22.6548   72.9436    2.8315 N.ar    1  UNL1       -0.2551
     16 C          21.4971   72.6436    3.4456 C.ar    1  UNL1        0.3323
     17 N          21.3114   72.9230    4.7493 N.ar    1  UNL1       -0.2743
     18 C          22.2875   73.5207    5.4619 C.ar    1  UNL1        0.2626
     19 C          23.5091   73.8475    4.8264 C.ar    1  UNL1        0.0795
     20 C          23.6707   73.5512    3.5190 C.ar    1  UNL1        0.0869
     21 O          20.6073   72.1043    2.8163 O.2     1  UNL1       -0.2464
     22 O          22.1189   73.7781    6.6395 O.2     1  UNL1       -0.2670
     23 H          20.4717   72.6952    5.1774 H       1  UNL1        0.1734
     24 O          21.2085   74.3708   -4.4224 O.3     1  UNL1       -0.2703
     25 P          21.3184   72.9174   -5.1043 P.3     1  UNL1        0.2208
     26 O          21.1673   71.8733   -4.0670 O.2     1  UNL1       -0.5170
     27 O          22.7556   72.7639   -5.8137 O.3     1  UNL1       -0.4371
     28 O          20.1572   72.7509   -6.2062 O.3     1  UNL1       -0.2865
     29 C          20.3100   71.4498   -6.7761 C.3     1  UNL1        0.2611
     30 C          20.3322   71.5659   -8.3013 C.3     1  UNL1        0.1582
     31 C          19.0256   72.2135   -8.7737 C.3     1  UNL1        0.1625
     32 C          17.8486   71.4195   -8.1972 C.3     1  UNL1        0.1686
     33 C          18.0123   71.3171   -6.6793 C.3     1  UNL1        0.1760
     34 O          18.9691   72.1915  -10.2012 O.3     1  UNL1       -0.3801
     35 O          16.6244   72.0899   -8.5032 O.3     1  UNL1       -0.3794
     36 O          19.2207   70.6238   -6.3704 O.3     1  UNL1       -0.3263
     37 H          18.1336   72.6077  -10.4542 H       1  UNL1        0.2105
     38 H          15.9114   71.5579   -8.1222 H       1  UNL1        0.2105
     39 C          21.2982   73.7140   -8.9233 C.2     1  UNL1        0.2231
     40 C          22.4669   74.5662   -9.3477 C.3     1  UNL1        0.0946
     41 N          21.4673   72.3943   -8.7131 N.am    1  UNL1       -0.2994
     42 O          20.2050   74.2162   -8.7716 O.2     1  UNL1       -0.2751
     43 H          22.3419   71.9921   -8.8346 H       1  UNL1        0.1496
     44 C          16.8245   70.5536   -6.0899 C.3     1  UNL1        0.1693
     45 O          16.2120   71.3409   -5.0667 O.3     1  UNL1       -0.3794
     46 H          15.4706   70.8246   -4.7225 H       1  UNL1        0.2105
@<TRIPOS>BOND
     1    29    30    1
     2    29    28    1
     3    29    36    1
     4    30    31    1
     5    30    41    1
     6    31    32    1
     7    31    34    1
     8    32    33    1
     9    32    35    1
    10    33    44    1
    11    33    36    1
    12    44    45    1
    13    39    40    1
    14    39    41   am
    15    39    42    2
    16    41    43    1
    17    28    25    1
    18    34    37    1
    19    35    38    1
    20    45    46    1
    21    15    16   ar
    22    15    20   ar
    23    15     6    1
    24    16    17   ar
    25    16    21    2
    26    17    18   ar
    27    17    23    1
    28    18    19   ar
    29    18    22    2
    30    19    20   ar
    31     6     7    1
    32     6    11    1
    33     7     8    1
    34     7     9    1
    35     8    13    1
    36     9    10    1
    37     9    12    1
    38    10    11    1
    39    10     5    1
    40    12    14    1
    41     5     4    1
    42     4     1    1
    43     1     2    2
    44     1     3    1
    45     1    24    1
    46    24    25    1
    47    25    26    2
    48    25    27    1
@<TRIPOS>MOLECULE
UD1
 46 48 0 0 0
SMALL
GASTEIGER

@<TRIPOS>ATOM
      1 P          22.0810   70.7706   -0.9672 P.3     1  UNL1        0.2189
      2 O          21.5155   69.7769   -1.9060 O.2     1  UNL1       -0.5170
      3 O          23.4439   70.1943   -0.3324 O.3     1  UNL1       -0.4371
      4 O          21.0216   71.0589    0.2107 O.3     1  UNL1       -0.3112
      5 C          21.2132   72.4148    0.6171 C.3     1  UNL1        0.1811
      6 C          23.2276   73.6905    3.3082 C.3     1  UNL1        0.2383
      7 C          21.8868   74.4573    3.4296 C.3     1  UNL1        0.1895
      8 O          21.6101   74.7907    4.7903 O.3     1  UNL1       -0.3779
      9 C          20.8675   73.4172    2.8964 C.3     1  UNL1        0.1713
     10 C          21.7243   72.4489    2.0582 C.3     1  UNL1        0.1764
     11 O          23.0763   72.9375    2.0861 O.3     1  UNL1       -0.3308
     12 O          20.2404   72.7296    3.9812 O.3     1  UNL1       -0.3794
     13 H          20.7669   75.2643    4.7968 H       1  UNL1        0.2106
     14 H          19.7709   73.3962    4.5003 H       1  UNL1        0.2105
     15 N          24.3512   74.6223    3.2046 N.ar    1  UNL1       -0.2551
     16 C          25.0897   74.8992    4.2933 C.ar    1  UNL1        0.3323
     17 N          26.1314   75.7493    4.2264 N.ar    1  UNL1       -0.2743
     18 C          26.4465   76.3474    3.0598 C.ar    1  UNL1        0.2626
     19 C          25.6737   76.0695    1.9072 C.ar    1  UNL1        0.0795
     20 C          24.6375   75.2087    2.0013 C.ar    1  UNL1        0.0869
     21 O          24.8181   74.3675    5.3526 O.2     1  UNL1       -0.2464
     22 O          27.3851   77.1198    2.9992 O.2     1  UNL1       -0.2670
     23 H          26.6562   75.9338    5.0205 H       1  UNL1        0.1734
     24 O          22.3915   72.1382   -1.7559 O.3     1  UNL1       -0.2703
     25 P          22.9071   71.7223   -3.2224 P.3     1  UNL1        0.2208
     26 O          23.5684   70.4005   -3.1561 O.2     1  UNL1       -0.5170
     27 O          23.9572   72.8207   -3.7543 O.3     1  UNL1       -0.4371
     28 O          21.6553   71.6460   -4.2312 O.3     1  UNL1       -0.2865
     29 C          20.8034   72.7495   -3.9187 C.3     1  UNL1        0.2611
     30 C          19.3604   72.3911   -4.2783 C.3     1  UNL1        0.1582
     31 C          19.2846   72.0550   -5.7719 C.3     1  UNL1        0.1625
     32 C          19.8849   73.2190   -6.5673 C.3     1  UNL1        0.1686
     33 C          21.2898   73.5130   -6.0370 C.3     1  UNL1        0.1760
     34 O          17.9204   71.8645   -6.1513 O.3     1  UNL1       -0.3801
     35 O          19.9587   72.8655   -7.9497 O.3     1  UNL1       -0.3794
     36 O          21.2169   73.8931   -4.6634 O.3     1  UNL1       -0.3263
     37 H          17.9196   71.6554   -7.0955 H       1  UNL1        0.2105
     38 H          20.3420   73.6241   -8.4124 H       1  UNL1        0.2105
     39 C          19.0541   69.9904   -4.0006 C.2     1  UNL1        0.2231
     40 C          18.6137   68.7974   -3.1913 C.3     1  UNL1        0.0946
     41 N          18.9331   71.2318   -3.4922 N.am    1  UNL1       -0.2994
     42 O          19.5170   69.8328   -5.1102 O.2     1  UNL1       -0.2751
     43 H          18.5625   71.3582   -2.6044 H       1  UNL1        0.1496
     44 C          21.9109   74.6531   -6.8465 C.3     1  UNL1        0.1693
     45 O          23.0421   75.1743   -6.1458 O.3     1  UNL1       -0.3794
     46 H          23.4026   75.8885   -6.6884 H       1  UNL1        0.2105
@<TRIPOS>BOND
     1    29    30    1
     2    29    28    1
     3    29    36    1
     4    30    31    1
     5    30    41    1
     6    31    32    1
     7    31    34    1
     8    32    33    1
     9    32    35    1
    10    33    44    1
    11    33    36    1
    12    44    45    1
    13    39    40    1
    14    39    41   am
    15    39    42    2
    16    41    43    1
    17    28    25    1
    18    34    37    1
    19    35    38    1
    20    45    46    1
    21    15    16   ar
    22    15    20   ar
    23    15     6    1
    24    16    17   ar
    25    16    21    2
    26    17    18   ar
    27    17    23    1
    28    18    19   ar
    29    18    22    2
    30    19    20   ar
    31     6     7    1
    32     6    11    1
    33     7     8    1
    34     7     9    1
    35     8    13    1
    36     9    10    1
    37     9    12    1
    38    10    11    1
    39    10     5    1
    40    12    14    1
    41     5     4    1
    42     4     1    1
    43     1     2    2
    44     1     3    1
    45     1    24    1
    46    24    25    1
    47    25    26    2
    48    25    27    1
@<TRIPOS>MOLECULE
UD1
 46 48 0 0 0
SMALL
GASTEIGER

@<TRIPOS>ATOM
      1 P          22.5041   73.0994   -3.3316 P.3     1  UNL1        0.2189
      2 O          22.0397   74.4206   -3.8087 O.2     1  UNL1       -0.5170
      3 O          23.9635   72.7922   -3.9386 O.3     1  UNL1       -0.4371
      4 O          21.4724   71.9617   -3.8155 O.3     1  UNL1       -0.3112
      5 C          20.5068   71.8086   -2.7740 C.3     1  UNL1        0.1811
      6 C          18.1093   71.2196   -5.3879 C.3     1  UNL1        0.2383
      7 C          18.1032   69.9139   -4.5541 C.3     1  UNL1        0.1895
      8 O          16.8174   69.2935   -4.5853 O.3     1  UNL1       -0.3779
      9 C          18.4319   70.4348   -3.1308 C.3     1  UNL1        0.1713
     10 C          19.1015   71.8006   -3.3774 C.3     1  UNL1        0.1764
     11 O          19.1793   71.9902   -4.8006 O.3     1  UNL1       -0.3308
     12 O          17.2347   70.5882   -2.3653 O.3     1  UNL1       -0.3794
     13 H          16.8808   68.4901   -4.0505 H       1  UNL1        0.2106
     14 H          16.8327   69.7120   -2.2971 H       1  UNL1        0.2105
     15 N          18.3904   70.9356   -6.7957 N.ar    1  UNL1       -0.2551
     16 C          17.3731   70.7224   -7.6484 C.ar    1  UNL1        0.3323
     17 N          17.6019   70.4629   -8.9493 N.ar    1  UNL1       -0.2743
     18 C          18.8645   70.4034   -9.4185 C.ar    1  UNL1        0.2626
     19 C          19.9451   70.6200   -8.5305 C.ar    1  UNL1        0.0795
     20 C          19.6869   70.8836   -7.2316 C.ar    1  UNL1        0.0869
     21 O          16.2287   70.7728   -7.2403 O.2     1  UNL1       -0.2464
     22 O          19.0727   70.1642  -10.5936 O.2     1  UNL1       -0.2670
     23 H          16.8560   70.3164   -9.5512 H       1  UNL1        0.1734
     24 O          22.5807   73.1057   -1.7244 O.3     1  UNL1       -0.2703
     25 P          22.3287   74.6234   -1.2530 P.3     1  UNL1        0.2208
     26 O          21.2392   75.2160   -2.0596 O.2     1  UNL1       -0.5170
     27 O          23.6756   75.4809   -1.4595 O.3     1  UNL1       -0.4371
     28 O          21.9157   74.6420    0.3025 O.3     1  UNL1       -0.2865
     29 C          23.0012   74.0601    1.0266 C.3     1  UNL1        0.2611
     30 C          22.5194   72.7852    1.7210 C.3     1  UNL1        0.1582
     31 C          21.3644   73.1350    2.6661 C.3     1  UNL1        0.1625
     32 C          21.8220   74.2559    3.6053 C.3     1  UNL1        0.1686
     33 C          22.3537   75.4214    2.7685 C.3     1  UNL1        0.1760
     34 O          21.0049   71.9824    3.4301 O.3     1  UNL1       -0.3801
     35 O          20.7169   74.6983    4.3956 O.3     1  UNL1       -0.3794
     36 O          23.4750   74.9899    1.9984 O.3     1  UNL1       -0.3263
     37 H          20.2768   72.2470    4.0091 H       1  UNL1        0.2105
     38 H          21.0482   75.4028    4.9705 H       1  UNL1        0.2105
     39 C          22.4071   70.5275    0.8128 C.2     1  UNL1        0.2231
     40 C          21.9320   69.5394   -0.2217 C.3     1  UNL1        0.0946
     41 N          22.0577   71.8248    0.7166 N.am    1  UNL1       -0.2994
     42 O          23.1048   70.1549    1.7317 O.2     1  UNL1       -0.2751
     43 H          21.4995   72.1234   -0.0189 H       1  UNL1        0.1496
     44 C          22.7834   76.5596    3.6964 C.3     1  UNL1        0.1693
     45 O          23.3568   76.0140    4.8862 O.3     1  UNL1       -0.3794
     46 H          23.6131   76.7625    5.4419 H       1  UNL1        0.2105
@<TRIPOS>BOND
     1    29    30    1
     2    29    28    1
     3    29    36    1
     4    30    31    1
     5    30    41    1
     6    31    32    1
     7    31    34    1
     8    32    33    1
     9    32    35    1
    10    33    44    1
    11    33    36    1
    12    44    45    1
    13    39    40    1
    14    39    41   am
    15    39    42    2
    16    41    43    1
    17    28    25    1
    18    34    37    1
    19    35    38    1
    20    45    46    1
    21    15    16   ar
    22    15    20   ar
    23    15     6    1
    24    16    17   ar
    25    16    21    2
    26    17    18   ar
    27    17    23    1
    28    18    19   ar
    29    18    22    2
    30    19    20   ar
    31     6     7    1
    32     6    11    1
    33     7     8    1
    34     7     9    1
    35     8    13    1
    36     9    10    1
    37     9    12    1
    38    10    11    1
    39    10     5    1
    40    12    14    1
    41     5     4    1
    42     4     1    1
    43     1     2    2
    44     1     3    1
    45     1    24    1
    46    24    25    1
    47    25    26    2
    48    25    27    1
@<TRIPOS>MOLECULE
UD1
 46 48 0 0 0
SMALL
GASTEIGER

@<TRIPOS>ATOM
      1 P          22.8748   71.9568   -3.3261 P.3     1  UNL1        0.2189
      2 O          23.4712   70.6275   -3.0688 O.2     1  UNL1       -0.5170
      3 O          23.9455   72.8869   -4.0883 O.3     1  UNL1       -0.4371
      4 O          22.4699   72.6426   -1.9266 O.3     1  UNL1       -0.3112
      5 C          21.8449   71.6308   -1.1354 C.3     1  UNL1        0.1811
      6 C          21.6031   73.5305    1.9076 C.3     1  UNL1        0.2383
      7 C          21.4150   74.5769    0.7807 C.3     1  UNL1        0.1895
      8 O          20.5648   75.6415    1.2085 O.3     1  UNL1       -0.3779
      9 C          20.7344   73.7382   -0.3322 C.3     1  UNL1        0.1713
     10 C          21.0912   72.2824    0.0250 C.3     1  UNL1        0.1764
     11 O          21.9292   72.3196    1.1928 O.3     1  UNL1       -0.3308
     12 O          19.3186   73.9329   -0.3102 O.3     1  UNL1       -0.3794
     13 H          20.4893   76.2557    0.4651 H       1  UNL1        0.2106
     14 H          19.1631   74.8715   -0.4808 H       1  UNL1        0.2105
     15 N          22.6994   73.9161    2.7968 N.ar    1  UNL1       -0.2551
     16 C          22.6823   73.5266    4.0834 C.ar    1  UNL1        0.3323
     17 N          23.6793   73.8634    4.9229 N.ar    1  UNL1       -0.2743
     18 C          24.7133   74.6099    4.4851 C.ar    1  UNL1        0.2626
     19 C          24.7410   75.0318    3.1345 C.ar    1  UNL1        0.0795
     20 C          23.7306   74.6752    2.3127 C.ar    1  UNL1        0.0869
     21 O          21.7566   72.8530    4.4932 O.2     1  UNL1       -0.2464
     22 O          25.6128   74.9190    5.2445 O.2     1  UNL1       -0.2670
     23 H          23.6530   73.5698    5.8466 H       1  UNL1        0.1734
     24 O          21.5618   71.7881   -4.2405 O.3     1  UNL1       -0.2703
     25 P          21.5488   73.0262   -5.2683 P.3     1  UNL1        0.2208
     26 O          22.7583   72.9739   -6.1187 O.2     1  UNL1       -0.5170
     27 O          21.5329   74.4089   -4.4436 O.3     1  UNL1       -0.4371
     28 O          20.2365   72.9414   -6.1962 O.3     1  UNL1       -0.2865
     29 C          20.4799   71.9211   -7.1662 C.3     1  UNL1        0.2611
     30 C          20.2324   72.4858   -8.5661 C.3     1  UNL1        0.1582
     31 C          18.7859   72.9846   -8.6569 C.3     1  UNL1        0.1625
     32 C          17.8481   71.8476   -8.2373 C.3     1  UNL1        0.1686
     33 C          18.2738   71.3330   -6.8605 C.3     1  UNL1        0.1760
     34 O          18.4978   73.3762  -10.0004 O.3     1  UNL1       -0.3801
     35 O          16.5061   72.3339   -8.1733 O.3     1  UNL1       -0.3794
     36 O          19.6042   70.8213   -6.9272 O.3     1  UNL1       -0.3263
     37 H          17.5805   73.6825  -10.0115 H       1  UNL1        0.2105
     38 H          15.9508   71.5880   -7.9056 H       1  UNL1        0.2105
     39 C          20.7880   74.8568   -8.5013 C.2     1  UNL1        0.2231
     40 C          21.7343   76.0017   -8.7583 C.3     1  UNL1        0.0946
     41 N          21.1515   73.5983   -8.8151 N.am    1  UNL1       -0.2994
     42 O          19.6989   75.0685   -8.0124 O.2     1  UNL1       -0.2751
     43 H          22.0230   73.4287   -9.2066 H       1  UNL1        0.1496
     44 C          17.3233   70.2187   -6.4178 C.3     1  UNL1        0.1693
     45 O          15.9727   70.6237   -6.6501 O.3     1  UNL1       -0.3794
     46 H          15.4080   69.8954   -6.3580 H       1  UNL1        0.2105
@<TRIPOS>BOND
     1    29    30    1
     2    29    28    1
     3    29    36    1
     4    30    31    1
     5    30    41    1
     6    31    32    1
     7    31    34    1
     8    32    33    1
     9    32    35    1
    10    33    44    1
    11    33    36    1
    12    44    45    1
    13    39    40    1
    14    39    41   am
    15    39    42    2
    16    41    43    1
    17    28    25    1
    18    34    37    1
    19    35    38    1
    20    45    46    1
    21    15    16   ar
    22    15    20   ar
    23    15     6    1
    24    16    17   ar
    25    16    21    2
    26    17    18   ar
    27    17    23    1
    28    18    19   ar
    29    18    22    2
    30    19    20   ar
    31     6     7    1
    32     6    11    1
    33     7     8    1
    34     7     9    1
    35     8    13    1
    36     9    10    1
    37     9    12    1
    38    10    11    1
    39    10     5    1
    40    12    14    1
    41     5     4    1
    42     4     1    1
    43     1     2    2
    44     1     3    1
    45     1    24    1
    46    24    25    1
    47    25    26    2
    48    25    27    1
@<TRIPOS>MOLECULE
UD1
 46 48 0 0 0
SMALL
GASTEIGER

@<TRIPOS>ATOM
      1 P          21.9120   70.4196   -0.3352 P.3     1  UNL1        0.2189
      2 O          22.6598   71.5397   -0.9476 O.2     1  UNL1       -0.5170
      3 O          22.9289   69.2192    0.0078 O.3     1  UNL1       -0.4371
      4 O          20.7925   69.8949   -1.3668 O.3     1  UNL1       -0.3112
      5 C          20.9512   70.6498   -2.5690 C.3     1  UNL1        0.1811
      6 C          18.4199   71.0142   -5.0962 C.3     1  UNL1        0.2383
      7 C          18.0953   69.6617   -4.4139 C.3     1  UNL1        0.1895
      8 O          16.6921   69.3981   -4.4431 O.3     1  UNL1       -0.3779
      9 C          18.5827   69.9043   -2.9617 C.3     1  UNL1        0.1713
     10 C          19.5777   71.0738   -3.0912 C.3     1  UNL1        0.1764
     11 O          19.6672   71.4091   -4.4865 O.3     1  UNL1       -0.3308
     12 O          17.4855   70.2634   -2.1191 O.3     1  UNL1       -0.3794
     13 H          16.5579   68.5462   -4.0054 H       1  UNL1        0.2106
     14 H          16.8716   69.5170   -2.1268 H       1  UNL1        0.2105
     15 N          18.5830   70.8416   -6.5401 N.ar    1  UNL1       -0.2551
     16 C          17.4974   70.7814   -7.3308 C.ar    1  UNL1        0.3323
     17 N          17.6177   70.6271   -8.6627 N.ar    1  UNL1       -0.2743
     18 C          18.8376   70.5205   -9.2270 C.ar    1  UNL1        0.2626
     19 C          19.9887   70.5761   -8.4056 C.ar    1  UNL1        0.0795
     20 C          19.8394   70.7369   -7.0733 C.ar    1  UNL1        0.0869
     21 O          16.3903   70.8761   -6.8368 O.2     1  UNL1       -0.2464
     22 O          18.9473   70.3761  -10.4305 O.2     1  UNL1       -0.2670
     23 H          16.8239   70.5905   -9.2185 H       1  UNL1        0.1734
     24 O          21.2009   70.9247    1.0169 O.3     1  UNL1       -0.2703
     25 P          21.5191   72.4964    1.1503 P.3     1  UNL1        0.2208
     26 O          20.5561   73.2657    0.3319 O.2     1  UNL1       -0.5170
     27 O          23.0154   72.7876    0.6322 O.3     1  UNL1       -0.4371
     28 O          21.3901   72.9424    2.6914 O.3     1  UNL1       -0.2865
     29 C          21.1043   74.3422    2.6952 C.3     1  UNL1        0.2611
     30 C          22.2256   75.0846    3.4242 C.3     1  UNL1        0.1582
     31 C          22.3319   74.5501    4.8569 C.3     1  UNL1        0.1625
     32 C          20.9523   74.6415    5.5176 C.3     1  UNL1        0.1686
     33 C          19.9274   73.9297    4.6320 C.3     1  UNL1        0.1760
     34 O          23.2718   75.3355    5.5925 O.3     1  UNL1       -0.3801
     35 O          20.9946   74.0145    6.8009 O.3     1  UNL1       -0.3794
     36 O          19.8629   74.5706    3.3586 O.3     1  UNL1       -0.3263
     37 H          23.3073   74.9652    6.4852 H       1  UNL1        0.2105
     38 H          20.1079   74.0939    7.1804 H       1  UNL1        0.2105
     39 C          24.3465   75.8925    2.5391 C.2     1  UNL1        0.2231
     40 C          25.6511   75.6679    1.8179 C.3     1  UNL1        0.0946
     41 N          23.4932   74.8669    2.7241 N.am    1  UNL1       -0.2994
     42 O          24.0646   76.9969    2.9525 O.2     1  UNL1       -0.2751
     43 H          23.7185   73.9829    2.3931 H       1  UNL1        0.1496
     44 C          18.5516   73.9872    5.2991 C.3     1  UNL1        0.1693
     45 O          18.3365   72.7917    6.0519 O.3     1  UNL1       -0.3794
     46 H          17.4609   72.8683    6.4545 H       1  UNL1        0.2105
@<TRIPOS>BOND
     1    29    30    1
     2    29    28    1
     3    29    36    1
     4    30    31    1
     5    30    41    1
     6    31    32    1
     7    31    34    1
     8    32    33    1
     9    32    35    1
    10    33    44    1
    11    33    36    1
    12    44    45    1
    13    39    40    1
    14    39    41   am
    15    39    42    2
    16    41    43    1
    17    28    25    1
    18    34    37    1
    19    35    38    1
    20    45    46    1
    21    15    16   ar
    22    15    20   ar
    23    15     6    1
    24    16    17   ar
    25    16    21    2
    26    17    18   ar
    27    17    23    1
    28    18    19   ar
    29    18    22    2
    30    19    20   ar
    31     6     7    1
    32     6    11    1
    33     7     8    1
    34     7     9    1
    35     8    13    1
    36     9    10    1
    37     9    12    1
    38    10    11    1
    39    10     5    1
    40    12    14    1
    41     5     4    1
    42     4     1    1
    43     1     2    2
    44     1     3    1
    45     1    24    1
    46    24    25    1
    47    25    26    2
    48    25    27    1
@<TRIPOS>MOLECULE
UD1
 46 48 0 0 0
SMALL
GASTEIGER

@<TRIPOS>ATOM
      1 P          22.8601   71.9670   -3.1265 P.3     1  UNL1        0.2189
      2 O          23.3778   70.5909   -3.2913 O.2     1  UNL1       -0.5170
      3 O          23.6092   72.9495   -4.1590 O.3     1  UNL1       -0.4371
      4 O          23.1323   72.4652   -1.6196 O.3     1  UNL1       -0.3112
      5 C          22.6636   73.8121   -1.5381 C.3     1  UNL1        0.1811
      6 C          20.7036   73.9895    1.4710 C.3     1  UNL1        0.2383
      7 C          20.8365   75.4617    1.0069 C.3     1  UNL1        0.1895
      8 O          19.6904   76.2233    1.3885 O.3     1  UNL1       -0.3779
      9 C          20.9127   75.3114   -0.5348 C.3     1  UNL1        0.1713
     10 C          21.3550   73.8507   -0.7472 C.3     1  UNL1        0.1764
     11 O          21.5519   73.2682    0.5525 O.3     1  UNL1       -0.3308
     12 O          19.6315   75.5437   -1.1242 O.3     1  UNL1       -0.3794
     13 H          19.8356   77.1256    1.0720 H       1  UNL1        0.2106
     14 H          19.3844   76.4523   -0.9062 H       1  UNL1        0.2105
     15 N          21.1807   73.8332    2.8455 N.ar    1  UNL1       -0.2551
     16 C          20.2996   73.8345    3.8609 C.ar    1  UNL1        0.3323
     17 N          20.7097   73.6887    5.1348 N.ar    1  UNL1       -0.2743
     18 C          22.0211   73.5473    5.4144 C.ar    1  UNL1        0.2626
     19 C          22.9601   73.5502    4.3556 C.ar    1  UNL1        0.0795
     20 C          22.5209   73.6928    3.0867 C.ar    1  UNL1        0.0869
     21 O          19.1135   73.9609    3.6247 O.2     1  UNL1       -0.2464
     22 O          22.3935   73.4202    6.5662 O.2     1  UNL1       -0.2670
     23 H          20.0598   73.6872    5.8544 H       1  UNL1        0.1734
     24 O          21.2782   71.9839   -3.4196 O.3     1  UNL1       -0.2703
     25 P          21.0743   72.7357   -4.8276 P.3     1  UNL1        0.2208
     26 O          22.1150   72.2898   -5.7799 O.2     1  UNL1       -0.5170
     27 O          21.1934   74.3264   -4.6097 O.3     1  UNL1       -0.4371
     28 O          19.6194   72.3841   -5.4194 O.3     1  UNL1       -0.2865
     29 C          19.7776   71.2341   -6.2524 C.3     1  UNL1        0.2611
     30 C          18.5115   71.0379   -7.0881 C.3     1  UNL1        0.1582
     31 C          17.3127   70.8649   -6.1488 C.3     1  UNL1        0.1625
     32 C          17.6232   69.7356   -5.1607 C.3     1  UNL1        0.1686
     33 C          18.9550   70.0317   -4.4680 C.3     1  UNL1        0.1760
     34 O          16.1510   70.5324   -6.9113 O.3     1  UNL1       -0.3801
     35 O          16.5828   69.6550   -4.1847 O.3     1  UNL1       -0.3794
     36 O          20.0011   70.0857   -5.4372 O.3     1  UNL1       -0.3263
     37 H          15.4229   70.4334   -6.2825 H       1  UNL1        0.2105
     38 H          16.8181   68.9338   -3.5838 H       1  UNL1        0.2105
     39 C          17.5101   73.2157   -7.5224 C.2     1  UNL1        0.2231
     40 C          17.2935   74.4211   -8.4012 C.3     1  UNL1        0.0946
     41 N          18.3013   72.2093   -7.9413 N.am    1  UNL1       -0.2994
     42 O          16.9714   73.1513   -6.4380 O.2     1  UNL1       -0.2751
     43 H          18.7323   72.2605   -8.8092 H       1  UNL1        0.1496
     44 C          19.2586   68.9258   -3.4551 C.3     1  UNL1        0.1693
     45 O          20.6553   68.9263   -3.1530 O.3     1  UNL1       -0.3794
     46 H          20.8036   68.2166   -2.5135 H       1  UNL1        0.2105
@<TRIPOS>BOND
     1    29    30    1
     2    29    28    1
     3    29    36    1
     4    30    31    1
     5    30    41    1
     6    31    32    1
     7    31    34    1
     8    32    33    1
     9    32    35    1
    10    33    44    1
    11    33    36    1
    12    44    45    1
    13    39    40    1
    14    39    41   am
    15    39    42    2
    16    41    43    1
    17    28    25    1
    18    34    37    1
    19    35    38    1
    20    45    46    1
    21    15    16   ar
    22    15    20   ar
    23    15     6    1
    24    16    17   ar
    25    16    21    2
    26    17    18   ar
    27    17    23    1
    28    18    19   ar
    29    18    22    2
    30    19    20   ar
    31     6     7    1
    32     6    11    1
    33     7     8    1
    34     7     9    1
    35     8    13    1
    36     9    10    1
    37     9    12    1
    38    10    11    1
    39    10     5    1
    40    12    14    1
    41     5     4    1
    42     4     1    1
    43     1     2    2
    44     1     3    1
    45     1    24    1
    46    24    25    1
    47    25    26    2
    48    25    27    1
@<TRIPOS>MOLECULE
UD1
 46 48 0 0 0
SMALL
GASTEIGER

@<TRIPOS>ATOM
      1 P          23.0147   73.7740   -3.8472 P.3     1  UNL1        0.2189
      2 O          23.9122   72.6041   -3.9679 O.2     1  UNL1       -0.5170
      3 O          23.2449   74.7586   -5.1002 O.3     1  UNL1       -0.4371
      4 O          23.3407   74.5610   -2.4807 O.3     1  UNL1       -0.3112
      5 C          22.4106   74.0942   -1.5022 C.3     1  UNL1        0.1811
      6 C          23.0017   72.3727    1.5985 C.3     1  UNL1        0.2383
      7 C          21.9079   71.5339    0.8912 C.3     1  UNL1        0.1895
      8 O          22.0145   70.1540    1.2432 O.3     1  UNL1       -0.3779
      9 C          22.2485   71.7509   -0.6062 C.3     1  UNL1        0.1713
     10 C          23.0845   73.0453   -0.6161 C.3     1  UNL1        0.1764
     11 O          23.1546   73.5219    0.7386 O.3     1  UNL1       -0.3308
     12 O          23.0104   70.6518   -1.1104 O.3     1  UNL1       -0.3794
     13 H          21.3086   69.6895    0.7725 H       1  UNL1        0.2106
     14 H          22.4567   69.8645   -1.0222 H       1  UNL1        0.2105
     15 N          22.5611   72.7814    2.9328 N.ar    1  UNL1       -0.2551
     16 C          21.2697   72.6425    3.2797 C.ar    1  UNL1        0.3323
     17 N          20.8372   73.0063    4.5015 N.ar    1  UNL1       -0.2743
     18 C          21.6973   73.5281    5.3992 C.ar    1  UNL1        0.2626
     19 C          23.0584   73.6854    5.0451 C.ar    1  UNL1        0.0795
     20 C          23.4664   73.3073    3.8147 C.ar    1  UNL1        0.0869
     21 O          20.4819   72.1734    2.4810 O.2     1  UNL1       -0.2464
     22 O          21.3064   73.8618    6.5025 O.2     1  UNL1       -0.2670
     23 H          19.9031   72.8946    4.7364 H       1  UNL1        0.1734
     24 O          21.4846   73.2770   -3.8280 O.3     1  UNL1       -0.2703
     25 P          20.9789   73.2699   -5.3555 P.3     1  UNL1        0.2208
     26 O          21.9712   72.5695   -6.2003 O.2     1  UNL1       -0.5170
     27 O          20.8093   74.7852   -5.8725 O.3     1  UNL1       -0.4371
     28 O          19.5628   72.5106   -5.4499 O.3     1  UNL1       -0.2865
     29 C          19.8466   71.1356   -5.7142 C.3     1  UNL1        0.2611
     30 C          18.7473   70.5554   -6.6058 C.3     1  UNL1        0.1582
     31 C          17.3966   70.7024   -5.8961 C.3     1  UNL1        0.1625
     32 C          17.5045   70.0752   -4.5022 C.3     1  UNL1        0.1686
     33 C          18.6959   70.6940   -3.7681 C.3     1  UNL1        0.1760
     34 O          16.3844   70.0321   -6.6494 O.3     1  UNL1       -0.3801
     35 O          16.3048   70.3302   -3.7692 O.3     1  UNL1       -0.3794
     36 O          19.8994   70.4175   -4.4834 O.3     1  UNL1       -0.3263
     37 H          15.5538   70.1501   -6.1683 H       1  UNL1        0.2105
     38 H          16.4155   69.9198   -2.8998 H       1  UNL1        0.2105
     39 C          19.4775   70.8684   -8.9086 C.2     1  UNL1        0.2231
     40 C          19.4439   71.6152  -10.2176 C.3     1  UNL1        0.0946
     41 N          18.7146   71.2802   -7.8778 N.am    1  UNL1       -0.2994
     42 O          20.1920   69.8968   -8.7831 O.2     1  UNL1       -0.2751
     43 H          18.1429   72.0578   -7.9779 H       1  UNL1        0.1496
     44 C          18.7929   70.0975   -2.3624 C.3     1  UNL1        0.1693
     45 O          18.2494   68.7759   -2.3667 O.3     1  UNL1       -0.3794
     46 H          18.3295   68.4375   -1.4646 H       1  UNL1        0.2105
@<TRIPOS>BOND
     1    29    30    1
     2    29    28    1
     3    29    36    1
     4    30    31    1
     5    30    41    1
     6    31    32    1
     7    31    34    1
     8    32    33    1
     9    32    35    1
    10    33    44    1
    11    33    36    1
    12    44    45    1
    13    39    40    1
    14    39    41   am
    15    39    42    2
    16    41    43    1
    17    28    25    1
    18    34    37    1
    19    35    38    1
    20    45    46    1
    21    15    16   ar
    22    15    20   ar
    23    15     6    1
    24    16    17   ar
    25    16    21    2
    26    17    18   ar
    27    17    23    1
    28    18    19   ar
    29    18    22    2
    30    19    20   ar
    31     6     7    1
    32     6    11    1
    33     7     8    1
    34     7     9    1
    35     8    13    1
    36     9    10    1
    37     9    12    1
    38    10    11    1
    39    10     5    1
    40    12    14    1
    41     5     4    1
    42     4     1    1
    43     1     2    2
    44     1     3    1
    45     1    24    1
    46    24    25    1
    47    25    26    2
    48    25    27    1
@<TRIPOS>MOLECULE
UD1
 46 48 0 0 0
SMALL
GASTEIGER

@<TRIPOS>ATOM
      1 P          21.2995   71.9775   -0.1401 P.3     1  UNL1        0.2189
      2 O          22.7094   72.2037   -0.5270 O.2     1  UNL1       -0.5170
      3 O          20.9819   70.3992   -0.1680 O.3     1  UNL1       -0.4371
      4 O          20.3304   72.7373   -1.1775 O.3     1  UNL1       -0.3112
      5 C          20.3698   71.9974   -2.3987 C.3     1  UNL1        0.1811
      6 C          18.0353   71.4098   -5.0693 C.3     1  UNL1        0.2383
      7 C          18.0180   70.0993   -4.2433 C.3     1  UNL1        0.1895
      8 O          16.7369   69.4718   -4.3070 O.3     1  UNL1       -0.3779
      9 C          18.3115   70.6139   -2.8100 C.3     1  UNL1        0.1713
     10 C          18.9785   71.9848   -3.0337 C.3     1  UNL1        0.1764
     11 O          19.0873   72.1831   -4.4536 O.3     1  UNL1       -0.3308
     12 O          17.0965   70.7560   -2.0709 O.3     1  UNL1       -0.3794
     13 H          16.7930   68.6657   -3.7755 H       1  UNL1        0.2106
     14 H          16.6982   69.8771   -2.0166 H       1  UNL1        0.2105
     15 N          18.3497   71.1356   -6.4720 N.ar    1  UNL1       -0.2551
     16 C          17.3538   70.9059   -7.3454 C.ar    1  UNL1        0.3323
     17 N          17.6134   70.6549   -8.6422 N.ar    1  UNL1       -0.2743
     18 C          18.8860   70.6207   -9.0862 C.ar    1  UNL1        0.2626
     19 C          19.9443   70.8548   -8.1763 C.ar    1  UNL1        0.0795
     20 C          19.6554   71.1095   -6.8821 C.ar    1  UNL1        0.0869
     21 O          16.2008   70.9335   -6.9601 O.2     1  UNL1       -0.2464
     22 O          19.1220   70.3891  -10.2576 O.2     1  UNL1       -0.2670
     23 H          16.8825   70.4962   -9.2593 H       1  UNL1        0.1734
     24 O          21.0516   72.5496    1.3432 O.3     1  UNL1       -0.2703
     25 P          21.3976   74.1205    1.2993 P.3     1  UNL1        0.2208
     26 O          20.1554   74.8931    1.0785 O.2     1  UNL1       -0.5170
     27 O          22.4295   74.4101    0.0979 O.3     1  UNL1       -0.4371
     28 O          22.0641   74.5637    2.6957 O.3     1  UNL1       -0.2865
     29 C          22.6878   73.4015    3.2446 C.3     1  UNL1        0.2611
     30 C          22.1568   73.1639    4.6594 C.3     1  UNL1        0.1582
     31 C          22.4558   74.3963    5.5205 C.3     1  UNL1        0.1625
     32 C          23.9538   74.7059    5.4298 C.3     1  UNL1        0.1686
     33 C          24.3486   74.8302    3.9567 C.3     1  UNL1        0.1760
     34 O          22.1000   74.1294    6.8783 O.3     1  UNL1       -0.3801
     35 O          24.2297   75.9344    6.1053 O.3     1  UNL1       -0.3794
     36 O          24.0999   73.5959    3.2851 O.3     1  UNL1       -0.3263
     37 H          22.3039   74.9289    7.3829 H       1  UNL1        0.2105
     38 H          25.1811   76.0912    6.0231 H       1  UNL1        0.2105
     39 C          19.8616   73.9669    4.8066 C.2     1  UNL1        0.2231
     40 C          18.3729   73.7358    4.7549 C.3     1  UNL1        0.0946
     41 N          20.7106   72.9400    4.6087 N.am    1  UNL1       -0.2994
     42 O          20.2955   75.0774    5.0272 O.2     1  UNL1       -0.2751
     43 H          20.3636   72.0511    4.4324 H       1  UNL1        0.1496
     44 C          25.8367   75.1716    3.8559 C.3     1  UNL1        0.1693
     45 O          26.0224   76.5686    4.0922 O.3     1  UNL1       -0.3794
     46 H          26.9709   76.7411    4.0193 H       1  UNL1        0.2105
@<TRIPOS>BOND
     1    29    30    1
     2    29    28    1
     3    29    36    1
     4    30    31    1
     5    30    41    1
     6    31    32    1
     7    31    34    1
     8    32    33    1
     9    32    35    1
    10    33    44    1
    11    33    36    1
    12    44    45    1
    13    39    40    1
    14    39    41   am
    15    39    42    2
    16    41    43    1
    17    28    25    1
    18    34    37    1
    19    35    38    1
    20    45    46    1
    21    15    16   ar
    22    15    20   ar
    23    15     6    1
    24    16    17   ar
    25    16    21    2
    26    17    18   ar
    27    17    23    1
    28    18    19   ar
    29    18    22    2
    30    19    20   ar
    31     6     7    1
    32     6    11    1
    33     7     8    1
    34     7     9    1
    35     8    13    1
    36     9    10    1
    37     9    12    1
    38    10    11    1
    39    10     5    1
    40    12    14    1
    41     5     4    1
    42     4     1    1
    43     1     2    2
    44     1     3    1
    45     1    24    1
    46    24    25    1
    47    25    26    2
    48    25    27    1
@<TRIPOS>MOLECULE
UD1
 46 48 0 0 0
SMALL
GASTEIGER

@<TRIPOS>ATOM
      1 P          22.4027   74.5000   -5.2315 P.3     1  UNL1        0.2189
      2 O          23.6075   75.3214   -5.4817 O.2     1  UNL1       -0.5170
      3 O          22.5788   73.0613   -5.9326 O.3     1  UNL1       -0.4371
      4 O          21.1118   75.2409   -5.8459 O.3     1  UNL1       -0.3112
      5 C          20.1971   75.4411   -4.7672 C.3     1  UNL1        0.1811
      6 C          18.2511   72.8894   -6.3887 C.3     1  UNL1        0.2383
      7 C          18.8166   72.2000   -5.1217 C.3     1  UNL1        0.1895
      8 O          17.9212   71.1957   -4.6435 O.3     1  UNL1       -0.3779
      9 C          18.9081   73.3816   -4.1214 C.3     1  UNL1        0.1713
     10 C          18.9235   74.6329   -5.0205 C.3     1  UNL1        0.1764
     11 O          18.8942   74.1817   -6.3854 O.3     1  UNL1       -0.3308
     12 O          17.7709   73.3935   -3.2558 O.3     1  UNL1       -0.3794
     13 H          18.3302   70.8067   -3.8580 H       1  UNL1        0.2106
     14 H          17.7848   72.5611   -2.7650 H       1  UNL1        0.2105
     15 N          18.6087   72.1380   -7.5924 N.ar    1  UNL1       -0.2551
     16 C          17.7748   71.1929   -8.0602 C.ar    1  UNL1        0.3323
     17 N          18.0762   70.4890   -9.1674 N.ar    1  UNL1       -0.2743
     18 C          19.2320   70.7165   -9.8235 C.ar    1  UNL1        0.2626
     19 C          20.1218   71.7043   -9.3385 C.ar    1  UNL1        0.0795
     20 C          19.7921   72.3994   -8.2288 C.ar    1  UNL1        0.0869
     21 O          16.7287   70.9762   -7.4795 O.2     1  UNL1       -0.2464
     22 O          19.5077   70.0773  -10.8220 O.2     1  UNL1       -0.2670
     23 H          17.4608   69.8144   -9.4935 H       1  UNL1        0.1734
     24 O          22.2057   74.3052   -3.6465 O.3     1  UNL1       -0.2703
     25 P          23.3860   73.3320   -3.1475 P.3     1  UNL1        0.2208
     26 O          24.6797   74.0455   -3.2257 O.2     1  UNL1       -0.5170
     27 O          23.4374   72.0247   -4.0858 O.3     1  UNL1       -0.4371
     28 O          23.1095   72.8878   -1.6254 O.3     1  UNL1       -0.2865
     29 C          21.7204   73.1088   -1.3749 C.3     1  UNL1        0.2611
     30 C          21.4760   73.1257    0.1350 C.3     1  UNL1        0.1582
     31 C          21.9269   71.7873    0.7308 C.3     1  UNL1        0.1625
     32 C          21.2316   70.6532   -0.0297 C.3     1  UNL1        0.1686
     33 C          21.4971   70.8212   -1.5272 C.3     1  UNL1        0.1760
     34 O          21.5673   71.7327    2.1125 O.3     1  UNL1       -0.3801
     35 O          21.7479   69.3957    0.4105 O.3     1  UNL1       -0.3794
     36 O          20.9584   72.0641   -1.9759 O.3     1  UNL1       -0.3263
     37 H          21.8693   70.8767    2.4462 H       1  UNL1        0.2105
     38 H          21.2847   68.7113   -0.0931 H       1  UNL1        0.2105
     39 C          21.6476   75.3987    0.9941 C.2     1  UNL1        0.2231
     40 C          22.4360   76.5210    1.6196 C.3     1  UNL1        0.0946
     41 N          22.2413   74.2161    0.7431 N.am    1  UNL1       -0.2994
     42 O          20.4785   75.5606    0.7161 O.2     1  UNL1       -0.2751
     43 H          23.1769   74.0863    0.9653 H       1  UNL1        0.1496
     44 C          20.8338   69.6748   -2.2933 C.3     1  UNL1        0.1693
     45 O          19.4216   69.8880   -2.3419 O.3     1  UNL1       -0.3794
     46 H          19.0432   69.1452   -2.8315 H       1  UNL1        0.2105
@<TRIPOS>BOND
     1    29    30    1
     2    29    28    1
     3    29    36    1
     4    30    31    1
     5    30    41    1
     6    31    32    1
     7    31    34    1
     8    32    33    1
     9    32    35    1
    10    33    44    1
    11    33    36    1
    12    44    45    1
    13    39    40    1
    14    39    41   am
    15    39    42    2
    16    41    43    1
    17    28    25    1
    18    34    37    1
    19    35    38    1
    20    45    46    1
    21    15    16   ar
    22    15    20   ar
    23    15     6    1
    24    16    17   ar
    25    16    21    2
    26    17    18   ar
    27    17    23    1
    28    18    19   ar
    29    18    22    2
    30    19    20   ar
    31     6     7    1
    32     6    11    1
    33     7     8    1
    34     7     9    1
    35     8    13    1
    36     9    10    1
    37     9    12    1
    38    10    11    1
    39    10     5    1
    40    12    14    1
    41     5     4    1
    42     4     1    1
    43     1     2    2
    44     1     3    1
    45     1    24    1
    46    24    25    1
    47    25    26    2
    48    25    27    1
@<TRIPOS>MOLECULE
UD1
 46 48 0 0 0
SMALL
GASTEIGER

@<TRIPOS>ATOM
      1 P          22.7870   71.6932   -2.7179 P.3     1  UNL1        0.2189
      2 O          23.5277   70.5578   -3.3104 O.2     1  UNL1       -0.5170
      3 O          23.7681   72.9629   -2.5844 O.3     1  UNL1       -0.4371
      4 O          22.2468   71.2779   -1.2589 O.3     1  UNL1       -0.3112
      5 C          22.6353   72.3194   -0.3619 C.3     1  UNL1        0.1811
      6 C          20.7219   73.9043    2.2371 C.3     1  UNL1        0.2383
      7 C          21.3817   75.0777    1.4703 C.3     1  UNL1        0.1895
      8 O          20.5570   76.2428    1.5108 O.3     1  UNL1       -0.3779
      9 C          21.4728   74.5141    0.0283 C.3     1  UNL1        0.1713
     10 C          21.3870   72.9872    0.2171 C.3     1  UNL1        0.1764
     11 O          21.3071   72.7328    1.6299 O.3     1  UNL1       -0.3308
     12 O          20.3823   74.9888   -0.7643 O.3     1  UNL1       -0.3794
     13 H          21.0225   76.9329    1.0184 H       1  UNL1        0.2106
     14 H          20.4579   75.9518   -0.7951 H       1  UNL1        0.2105
     15 N          21.0496   73.9655    3.6620 N.ar    1  UNL1       -0.2551
     16 C          22.3306   73.8607    4.0562 C.ar    1  UNL1        0.3323
     17 N          22.6615   73.9174    5.3598 N.ar    1  UNL1       -0.2743
     18 C          21.7051   74.0722    6.2975 C.ar    1  UNL1        0.2626
     19 C          20.3519   74.1778    5.8968 C.ar    1  UNL1        0.0795
     20 C          20.0485   74.1230    4.5822 C.ar    1  UNL1        0.0869
     21 O          23.2045   73.7208    3.2223 O.2     1  UNL1       -0.2464
     22 O          22.0026   74.1188    7.4768 O.2     1  UNL1       -0.2670
     23 H          23.5911   73.8449    5.6259 H       1  UNL1        0.1734
     24 O          21.5415   72.0732   -3.6630 O.3     1  UNL1       -0.2703
     25 P          20.4239   70.9375   -3.4381 P.3     1  UNL1        0.2208
     26 O          19.6299   71.2589   -2.2318 O.2     1  UNL1       -0.5170
     27 O          21.1408   69.5092   -3.2430 O.3     1  UNL1       -0.4371
     28 O          19.4521   70.8779   -4.7198 O.3     1  UNL1       -0.2865
     29 C          19.5029   72.1646   -5.3387 C.3     1  UNL1        0.2611
     30 C          18.0799   72.6990   -5.5102 C.3     1  UNL1        0.1582
     31 C          17.2758   71.7168   -6.3693 C.3     1  UNL1        0.1625
     32 C          18.0401   71.4670   -7.6737 C.3     1  UNL1        0.1686
     33 C          19.4655   71.0225   -7.3388 C.3     1  UNL1        0.1760
     34 O          15.9933   72.2748   -6.6613 O.3     1  UNL1       -0.3801
     35 O          17.3830   70.4442   -8.4244 O.3     1  UNL1       -0.3794
     36 O          20.1338   72.0532   -6.6126 O.3     1  UNL1       -0.3263
     37 H          15.5225   71.6254   -7.2016 H       1  UNL1        0.2105
     38 H          17.8964   70.3185   -9.2351 H       1  UNL1        0.2105
     39 C          16.6455   71.8578   -3.7300 C.2     1  UNL1        0.2231
     40 C          15.9928   71.9986   -2.3786 C.3     1  UNL1        0.0946
     41 N          17.4460   72.8351   -4.1972 N.am    1  UNL1       -0.2994
     42 O          16.4494   70.8647   -4.3975 O.2     1  UNL1       -0.2751
     43 H          17.6029   73.6300   -3.6633 H       1  UNL1        0.1496
     44 C          20.2278   70.7390   -8.6348 C.3     1  UNL1        0.1693
     45 O          21.0914   71.8386   -8.9302 O.3     1  UNL1       -0.3794
     46 H          21.5514   71.6202   -9.7519 H       1  UNL1        0.2105
@<TRIPOS>BOND
     1    29    30    1
     2    29    28    1
     3    29    36    1
     4    30    31    1
     5    30    41    1
     6    31    32    1
     7    31    34    1
     8    32    33    1
     9    32    35    1
    10    33    44    1
    11    33    36    1
    12    44    45    1
    13    39    40    1
    14    39    41   am
    15    39    42    2
    16    41    43    1
    17    28    25    1
    18    34    37    1
    19    35    38    1
    20    45    46    1
    21    15    16   ar
    22    15    20   ar
    23    15     6    1
    24    16    17   ar
    25    16    21    2
    26    17    18   ar
    27    17    23    1
    28    18    19   ar
    29    18    22    2
    30    19    20   ar
    31     6     7    1
    32     6    11    1
    33     7     8    1
    34     7     9    1
    35     8    13    1
    36     9    10    1
    37     9    12    1
    38    10    11    1
    39    10     5    1
    40    12    14    1
    41     5     4    1
    42     4     1    1
    43     1     2    2
    44     1     3    1
    45     1    24    1
    46    24    25    1
    47    25    26    2
    48    25    27    1
@<TRIPOS>MOLECULE
UD1
 46 48 0 0 0
SMALL
GASTEIGER

@<TRIPOS>ATOM
      1 P          21.4307   71.4017   -0.2677 P.3     1  UNL1        0.2189
      2 O          22.7876   71.8685   -0.6280 O.2     1  UNL1       -0.5170
      3 O          21.2917   69.8359   -0.6163 O.3     1  UNL1       -0.4371
      4 O          20.3369   72.2360   -1.1045 O.3     1  UNL1       -0.3112
      5 C          20.4106   71.7768   -2.4551 C.3     1  UNL1        0.1811
      6 C          18.0625   71.3668   -5.1468 C.3     1  UNL1        0.2383
      7 C          17.9492   70.0554   -4.3297 C.3     1  UNL1        0.1895
      8 O          16.6287   69.5174   -4.4071 O.3     1  UNL1       -0.3779
      9 C          18.2659   70.5399   -2.8909 C.3     1  UNL1        0.1713
     10 C          19.0267   71.8634   -3.1004 C.3     1  UNL1        0.1764
     11 O          19.1599   72.0625   -4.5181 O.3     1  UNL1       -0.3308
     12 O          17.0577   70.7602   -2.1598 O.3     1  UNL1       -0.3794
     13 H          16.6254   68.7061   -3.8805 H       1  UNL1        0.2106
     14 H          16.5998   69.9103   -2.1144 H       1  UNL1        0.2105
     15 N          18.3684   71.0803   -6.5489 N.ar    1  UNL1       -0.2551
     16 C          17.3659   70.8875   -7.4236 C.ar    1  UNL1        0.3323
     17 N          17.6177   70.6263   -8.7200 N.ar    1  UNL1       -0.2743
     18 C          18.8888   70.5445   -9.1621 C.ar    1  UNL1        0.2626
     19 C          19.9539   70.7394   -8.2508 C.ar    1  UNL1        0.0795
     20 C          19.6728   71.0053   -6.9571 C.ar    1  UNL1        0.0869
     21 O          16.2141   70.9582   -7.0400 O.2     1  UNL1       -0.2464
     22 O          19.1177   70.3037  -10.3330 O.2     1  UNL1       -0.2670
     23 H          16.8823   70.4947   -9.3380 H       1  UNL1        0.1734
     24 O          21.1867   71.6256    1.3069 O.3     1  UNL1       -0.2703
     25 P          21.3445   73.2032    1.5820 P.3     1  UNL1        0.2208
     26 O          20.4864   73.9562    0.6410 O.2     1  UNL1       -0.5170
     27 O          22.8808   73.6348    1.3689 O.3     1  UNL1       -0.4371
     28 O          20.9008   73.5326    3.0937 O.3     1  UNL1       -0.2865
     29 C          20.6373   74.9356    3.1519 C.3     1  UNL1        0.2611
     30 C          21.4035   75.5450    4.3273 C.3     1  UNL1        0.1582
     31 C          20.9620   74.8572    5.6241 C.3     1  UNL1        0.1625
     32 C          19.4354   74.9402    5.7276 C.3     1  UNL1        0.1686
     33 C          18.8175   74.3735    4.4476 C.3     1  UNL1        0.1760
     34 O          21.5577   75.5168    6.7427 O.3     1  UNL1       -0.3801
     35 O          18.9906   74.1793    6.8522 O.3     1  UNL1       -0.3794
     36 O          19.2380   75.1482    3.3253 O.3     1  UNL1       -0.3263
     37 H          21.2541   75.0526    7.5350 H       1  UNL1        0.2105
     38 H          18.0265   74.2580    6.8796 H       1  UNL1        0.2105
     39 C          23.4650   74.3084    4.7218 C.2     1  UNL1        0.2231
     40 C          24.9448   74.1040    4.5200 C.3     1  UNL1        0.0946
     41 N          22.8410   75.3457    4.1311 N.am    1  UNL1       -0.2994
     42 O          22.8359   73.5392    5.4167 O.2     1  UNL1       -0.2751
     43 H          23.3442   75.9615    3.5752 H       1  UNL1        0.1496
     44 C          17.2919   74.4219    4.5545 C.3     1  UNL1        0.1693
     45 O          16.7606   75.1674    3.4572 O.3     1  UNL1       -0.3794
     46 H          15.7996   75.1739    3.5625 H       1  UNL1        0.2105
@<TRIPOS>BOND
     1    29    30    1
     2    29    28    1
     3    29    36    1
     4    30    31    1
     5    30    41    1
     6    31    32    1
     7    31    34    1
     8    32    33    1
     9    32    35    1
    10    33    44    1
    11    33    36    1
    12    44    45    1
    13    39    40    1
    14    39    41   am
    15    39    42    2
    16    41    43    1
    17    28    25    1
    18    34    37    1
    19    35    38    1
    20    45    46    1
    21    15    16   ar
    22    15    20   ar
    23    15     6    1
    24    16    17   ar
    25    16    21    2
    26    17    18   ar
    27    17    23    1
    28    18    19   ar
    29    18    22    2
    30    19    20   ar
    31     6     7    1
    32     6    11    1
    33     7     8    1
    34     7     9    1
    35     8    13    1
    36     9    10    1
    37     9    12    1
    38    10    11    1
    39    10     5    1
    40    12    14    1
    41     5     4    1
    42     4     1    1
    43     1     2    2
    44     1     3    1
    45     1    24    1
    46    24    25    1
    47    25    26    2
    48    25    27    1
@<TRIPOS>MOLECULE
UD1
 46 48 0 0 0
SMALL
GASTEIGER

@<TRIPOS>ATOM
      1 P          22.8777   72.1469   -3.4999 P.3     1  UNL1        0.2189
      2 O          22.3504   72.7214   -2.2427 O.2     1  UNL1       -0.5170
      3 O          23.3824   70.6415   -3.2320 O.3     1  UNL1       -0.4371
      4 O          24.1113   73.0405   -4.0218 O.3     1  UNL1       -0.3112
      5 C          23.7498   74.4067   -3.8138 C.3     1  UNL1        0.1811
      6 C          27.1569   75.5528   -3.8853 C.3     1  UNL1        0.2383
      7 C          26.3552   76.6743   -4.5922 C.3     1  UNL1        0.1895
      8 O          26.9671   77.9479   -4.3858 O.3     1  UNL1       -0.3779
      9 C          24.9832   76.5964   -3.8734 C.3     1  UNL1        0.1713
     10 C          24.9551   75.1775   -3.2731 C.3     1  UNL1        0.1764
     11 O          26.1721   74.5205   -3.6662 O.3     1  UNL1       -0.3308
     12 O          24.9012   77.5841   -2.8435 O.3     1  UNL1       -0.3794
     13 H          26.4223   78.5989   -4.8494 H       1  UNL1        0.2106
     14 H          24.9846   78.4449   -3.2749 H       1  UNL1        0.2105
     15 N          28.2348   75.0635   -4.7456 N.ar    1  UNL1       -0.2551
     16 C          29.3093   74.4712   -4.1960 C.ar    1  UNL1        0.3323
     17 N          30.3138   74.0082   -4.9632 N.ar    1  UNL1       -0.2743
     18 C          30.2615   74.1407   -6.3040 C.ar    1  UNL1        0.2626
     19 C          29.1390   74.7677   -6.8954 C.ar    1  UNL1        0.0795
     20 C          28.1430   75.2182   -6.1026 C.ar    1  UNL1        0.0869
     21 O          29.3710   74.3442   -2.9882 O.2     1  UNL1       -0.2464
     22 O          31.1714   73.7267   -6.9983 O.2     1  UNL1       -0.2670
     23 H          31.0791   73.5793   -4.5501 H       1  UNL1        0.1734
     24 O          21.7158   72.1343   -4.6129 O.3     1  UNL1       -0.2703
     25 P          20.4510   71.3870   -3.9562 P.3     1  UNL1        0.2208
     26 O          19.9777   72.1561   -2.7843 O.2     1  UNL1       -0.5170
     27 O          20.8840   69.9087   -3.4878 O.3     1  UNL1       -0.4371
     28 O          19.2670   71.2793   -5.0411 O.3     1  UNL1       -0.2865
     29 C          19.1274   72.5726   -5.6321 C.3     1  UNL1        0.2611
     30 C          17.6696   73.0230   -5.5232 C.3     1  UNL1        0.1582
     31 C          16.7752   72.0027   -6.2364 C.3     1  UNL1        0.1625
     32 C          17.2934   71.8112   -7.6657 C.3     1  UNL1        0.1686
     33 C          18.7792   71.4491   -7.6128 C.3     1  UNL1        0.1760
     34 O          15.4312   72.4862   -6.2716 O.3     1  UNL1       -0.3801
     35 O          16.5658   70.7582   -8.3008 O.3     1  UNL1       -0.3794
     36 O          19.5127   72.5109   -7.0036 O.3     1  UNL1       -0.3263
     37 H          14.9047   71.8151   -6.7274 H       1  UNL1        0.2105
     38 H          16.9238   70.6710   -9.1956 H       1  UNL1        0.2105
     39 C          16.6447   72.0816   -3.5238 C.2     1  UNL1        0.2231
     40 C          16.2510   72.1705   -2.0714 C.3     1  UNL1        0.0946
     41 N          17.2874   73.1087   -4.1122 N.am    1  UNL1       -0.2994
     42 O          16.3822   71.0853   -4.1632 O.2     1  UNL1       -0.2751
     43 H          17.4974   73.9061   -3.6008 H       1  UNL1        0.1496
     44 C          19.2989   71.2238   -9.0341 C.3     1  UNL1        0.1693
     45 O          18.5170   71.9880   -9.9544 O.3     1  UNL1       -0.3794
     46 H          18.8763   71.8177  -10.8356 H       1  UNL1        0.2105
@<TRIPOS>BOND
     1    29    30    1
     2    29    28    1
     3    29    36    1
     4    30    31    1
     5    30    41    1
     6    31    32    1
     7    31    34    1
     8    32    33    1
     9    32    35    1
    10    33    44    1
    11    33    36    1
    12    44    45    1
    13    39    40    1
    14    39    41   am
    15    39    42    2
    16    41    43    1
    17    28    25    1
    18    34    37    1
    19    35    38    1
    20    45    46    1
    21    15    16   ar
    22    15    20   ar
    23    15     6    1
    24    16    17   ar
    25    16    21    2
    26    17    18   ar
    27    17    23    1
    28    18    19   ar
    29    18    22    2
    30    19    20   ar
    31     6     7    1
    32     6    11    1
    33     7     8    1
    34     7     9    1
    35     8    13    1
    36     9    10    1
    37     9    12    1
    38    10    11    1
    39    10     5    1
    40    12    14    1
    41     5     4    1
    42     4     1    1
    43     1     2    2
    44     1     3    1
    45     1    24    1
    46    24    25    1
    47    25    26    2
    48    25    27    1
@<TRIPOS>MOLECULE
UD1
 46 48 0 0 0
SMALL
GASTEIGER

@<TRIPOS>ATOM
      1 P          21.4898   71.4832   -3.4347 P.3     1  UNL1        0.2189
      2 O          21.0516   70.1336   -3.0158 O.2     1  UNL1       -0.5170
      3 O          23.0859   71.4874   -3.6472 O.3     1  UNL1       -0.4371
      4 O          21.0983   72.5516   -2.2954 O.3     1  UNL1       -0.3112
      5 C          20.9600   71.8230   -1.0747 C.3     1  UNL1        0.1811
      6 C          23.0670   72.1185    1.8236 C.3     1  UNL1        0.2383
      7 C          22.7227   70.6100    1.7463 C.3     1  UNL1        0.1895
      8 O          23.7864   69.8153    2.2719 O.3     1  UNL1       -0.3779
      9 C          22.5693   70.3889    0.2189 C.3     1  UNL1        0.1713
     10 C          22.3004   71.8001   -0.3385 C.3     1  UNL1        0.1764
     11 O          22.2596   72.7031    0.7796 O.3     1  UNL1       -0.3308
     12 O          23.7721   69.8474   -0.3315 O.3     1  UNL1       -0.3794
     13 H          23.5102   68.8915    2.1953 H       1  UNL1        0.2106
     14 H          23.9170   68.9944    0.0992 H       1  UNL1        0.2105
     15 N          22.7002   72.6687    3.1291 N.ar    1  UNL1       -0.2551
     16 C          21.4469   72.5126    3.5896 C.ar    1  UNL1        0.3323
     17 N          21.0826   73.0047    4.7885 N.ar    1  UNL1       -0.2743
     18 C          21.9734   73.6747    5.5471 C.ar    1  UNL1        0.2626
     19 C          23.2947   73.8515    5.0718 C.ar    1  UNL1        0.0795
     20 C          23.6347   73.3430    3.8680 C.ar    1  UNL1        0.0869
     21 O          20.6321   71.9106    2.9170 O.2     1  UNL1       -0.2464
     22 O          21.6439   74.1242    6.6291 O.2     1  UNL1       -0.2670
     23 H          20.1755   72.8787    5.1071 H       1  UNL1        0.1734
     24 O          20.7627   71.8794   -4.8143 O.3     1  UNL1       -0.2703
     25 P          19.2815   71.2534   -4.7556 P.3     1  UNL1        0.2208
     26 O          18.7247   71.4307   -3.3963 O.2     1  UNL1       -0.5170
     27 O          19.3471   69.6837   -5.1073 O.3     1  UNL1       -0.4371
     28 O          18.3384   72.0022   -5.8235 O.3     1  UNL1       -0.2865
     29 C          17.1873   71.1767   -6.0104 C.3     1  UNL1        0.2611
     30 C          16.6704   71.3471   -7.4400 C.3     1  UNL1        0.1582
     31 C          16.3229   72.8214   -7.6750 C.3     1  UNL1        0.1625
     32 C          15.3599   73.2794   -6.5745 C.3     1  UNL1        0.1686
     33 C          15.9772   72.9659   -5.2099 C.3     1  UNL1        0.1760
     34 O          15.7004   72.9689   -8.9525 O.3     1  UNL1       -0.3801
     35 O          15.1383   74.6863   -6.6885 O.3     1  UNL1       -0.3794
     36 O          16.1746   71.5584   -5.0819 O.3     1  UNL1       -0.3263
     37 H          15.4997   73.9090   -9.0586 H       1  UNL1        0.2105
     38 H          14.5287   74.9319   -5.9781 H       1  UNL1        0.2105
     39 C          18.5603   71.8382   -8.8966 C.2     1  UNL1        0.2231
     40 C          19.6252   71.4084   -9.8730 C.3     1  UNL1        0.0946
     41 N          17.7055   70.9299   -8.3882 N.am    1  UNL1       -0.2994
     42 O          18.4724   73.0023   -8.5689 O.2     1  UNL1       -0.2751
     43 H          17.7754   69.9983   -8.6504 H       1  UNL1        0.1496
     44 C          15.0374   73.4490   -4.1034 C.3     1  UNL1        0.1693
     45 O          15.7931   73.7218   -2.9215 O.3     1  UNL1       -0.3794
     46 H          15.1649   74.0224   -2.2509 H       1  UNL1        0.2105
@<TRIPOS>BOND
     1    29    30    1
     2    29    28    1
     3    29    36    1
     4    30    31    1
     5    30    41    1
     6    31    32    1
     7    31    34    1
     8    32    33    1
     9    32    35    1
    10    33    44    1
    11    33    36    1
    12    44    45    1
    13    39    40    1
    14    39    41   am
    15    39    42    2
    16    41    43    1
    17    28    25    1
    18    34    37    1
    19    35    38    1
    20    45    46    1
    21    15    16   ar
    22    15    20   ar
    23    15     6    1
    24    16    17   ar
    25    16    21    2
    26    17    18   ar
    27    17    23    1
    28    18    19   ar
    29    18    22    2
    30    19    20   ar
    31     6     7    1
    32     6    11    1
    33     7     8    1
    34     7     9    1
    35     8    13    1
    36     9    10    1
    37     9    12    1
    38    10    11    1
    39    10     5    1
    40    12    14    1
    41     5     4    1
    42     4     1    1
    43     1     2    2
    44     1     3    1
    45     1    24    1
    46    24    25    1
    47    25    26    2
    48    25    27    1
@<TRIPOS>MOLECULE
UD1
 46 48 0 0 0
SMALL
GASTEIGER

@<TRIPOS>ATOM
      1 P          21.5773   74.6794   -7.2262 P.3     1  UNL1        0.2189
      2 O          21.6763   76.1386   -7.4494 O.2     1  UNL1       -0.5170
      3 O          23.0194   74.0019   -7.4579 O.3     1  UNL1       -0.4371
      4 O          20.5170   74.0495   -8.2616 O.3     1  UNL1       -0.3112
      5 C          21.1134   72.8670   -8.7966 C.3     1  UNL1        0.1811
      6 C          18.6371   71.0324   -6.9448 C.3     1  UNL1        0.2383
      7 C          17.8255   71.8191   -8.0043 C.3     1  UNL1        0.1895
      8 O          16.6483   71.1040   -8.3809 O.3     1  UNL1       -0.3779
      9 C          18.8259   71.9001   -9.1866 C.3     1  UNL1        0.1713
     10 C          20.2007   71.6690   -8.5302 C.3     1  UNL1        0.1764
     11 O          19.9830   71.5250   -7.1163 O.3     1  UNL1       -0.3308
     12 O          18.5462   70.8813  -10.1492 O.3     1  UNL1       -0.3794
     13 H          16.1902   71.6451   -9.0388 H       1  UNL1        0.2106
     14 H          17.6526   71.0458  -10.4784 H       1  UNL1        0.2105
     15 N          18.1493   71.3226   -5.5960 N.ar    1  UNL1       -0.2551
     16 C          17.2052   70.5393   -5.0460 C.ar    1  UNL1        0.3323
     17 N          16.7408   70.7803   -3.8056 N.ar    1  UNL1       -0.2743
     18 C          17.2123   71.8243   -3.0945 C.ar    1  UNL1        0.2626
     19 C          18.2019   72.6606   -3.6638 C.ar    1  UNL1        0.0795
     20 C          18.6539   72.3929   -4.9077 C.ar    1  UNL1        0.0869
     21 O          16.7702   69.5938   -5.6748 O.2     1  UNL1       -0.2464
     22 O          16.7896   72.0460   -1.9749 O.2     1  UNL1       -0.2670
     23 H          16.0631   70.2021   -3.4227 H       1  UNL1        0.1734
     24 O          21.0873   74.3990   -5.7195 O.3     1  UNL1       -0.2703
     25 P          22.4041   74.0646   -4.8572 P.3     1  UNL1        0.2208
     26 O          23.4201   75.1166   -5.0805 O.2     1  UNL1       -0.5170
     27 O          22.9984   72.6398   -5.3144 O.3     1  UNL1       -0.4371
     28 O          22.0238   74.0091   -3.2942 O.3     1  UNL1       -0.2865
     29 C          22.9553   73.1223   -2.6722 C.3     1  UNL1        0.2611
     30 C          22.2071   72.1969   -1.7110 C.3     1  UNL1        0.1582
     31 C          21.4831   73.0456   -0.6598 C.3     1  UNL1        0.1625
     32 C          22.5005   73.9840   -0.0020 C.3     1  UNL1        0.1686
     33 C          23.2245   74.7769   -1.0922 C.3     1  UNL1        0.1760
     34 O          20.9048   72.1920    0.3293 O.3     1  UNL1       -0.3801
     35 O          21.8222   74.8848    0.8755 O.3     1  UNL1       -0.3794
     36 O          23.9257   73.8816   -1.9544 O.3     1  UNL1       -0.3263
     37 H          20.4607   72.7659    0.9686 H       1  UNL1        0.2105
     38 H          22.4981   75.4564    1.2666 H       1  UNL1        0.2105
     39 C          21.0063   70.1172   -2.1201 C.2     1  UNL1        0.2231
     40 C          20.0006   69.2992   -2.8892 C.3     1  UNL1        0.0946
     41 N          21.2298   71.4020   -2.4575 N.am    1  UNL1       -0.2994
     42 O          21.6152   69.6186   -1.1977 O.2     1  UNL1       -0.2751
     43 H          20.7428   71.8011   -3.1958 H       1  UNL1        0.1496
     44 C          24.2203   75.7408   -0.4438 C.3     1  UNL1        0.1693
     45 O          24.5597   75.2689    0.8616 O.3     1  UNL1       -0.3794
     46 H          25.1870   75.9032    1.2342 H       1  UNL1        0.2105
@<TRIPOS>BOND
     1    29    30    1
     2    29    28    1
     3    29    36    1
     4    30    31    1
     5    30    41    1
     6    31    32    1
     7    31    34    1
     8    32    33    1
     9    32    35    1
    10    33    44    1
    11    33    36    1
    12    44    45    1
    13    39    40    1
    14    39    41   am
    15    39    42    2
    16    41    43    1
    17    28    25    1
    18    34    37    1
    19    35    38    1
    20    45    46    1
    21    15    16   ar
    22    15    20   ar
    23    15     6    1
    24    16    17   ar
    25    16    21    2
    26    17    18   ar
    27    17    23    1
    28    18    19   ar
    29    18    22    2
    30    19    20   ar
    31     6     7    1
    32     6    11    1
    33     7     8    1
    34     7     9    1
    35     8    13    1
    36     9    10    1
    37     9    12    1
    38    10    11    1
    39    10     5    1
    40    12    14    1
    41     5     4    1
    42     4     1    1
    43     1     2    2
    44     1     3    1
    45     1    24    1
    46    24    25    1
    47    25    26    2
    48    25    27    1
@<TRIPOS>MOLECULE
UD1
 46 48 0 0 0
SMALL
GASTEIGER

@<TRIPOS>ATOM
      1 P          19.4711   69.7299   -2.9456 P.3     1  UNL1        0.2189
      2 O          18.3181   69.0118   -2.3594 O.2     1  UNL1       -0.5170
      3 O          20.8266   68.9230   -2.6228 O.3     1  UNL1       -0.4371
      4 O          19.5626   71.2065   -2.3098 O.3     1  UNL1       -0.3112
      5 C          20.7732   71.2572   -1.5534 C.3     1  UNL1        0.1811
      6 C          21.6670   73.8517    0.7697 C.3     1  UNL1        0.2383
      7 C          23.0105   73.4288    0.1243 C.3     1  UNL1        0.1895
      8 O          23.9180   74.5298    0.0650 O.3     1  UNL1       -0.3779
      9 C          22.5674   72.9996   -1.2986 C.3     1  UNL1        0.1713
     10 C          21.0626   72.7035   -1.1487 C.3     1  UNL1        0.1764
     11 O          20.7213   72.9019    0.2339 O.3     1  UNL1       -0.3308
     12 O          22.7846   74.0604   -2.2315 O.3     1  UNL1       -0.3794
     13 H          24.7304   74.2014   -0.3445 H       1  UNL1        0.2106
     14 H          23.7345   74.2384   -2.2357 H       1  UNL1        0.2105
     15 N          21.7351   73.7459    2.2276 N.ar    1  UNL1       -0.2551
     16 C          21.6054   72.5437    2.8152 C.ar    1  UNL1        0.3323
     17 N          21.6678   72.4161    4.1539 N.ar    1  UNL1       -0.2743
     18 C          21.8535   73.5015    4.9319 C.ar    1  UNL1        0.2626
     19 C          21.9856   74.7740    4.3268 C.ar    1  UNL1        0.0795
     20 C          21.9245   74.8727    2.9815 C.ar    1  UNL1        0.0869
     21 O          21.4374   71.5554    2.1269 O.2     1  UNL1       -0.2464
     22 O          21.9053   73.3879    6.1427 O.2     1  UNL1       -0.2670
     23 H          21.5769   71.5406    4.5605 H       1  UNL1        0.1734
     24 O          19.2793   69.8430   -4.5391 O.3     1  UNL1       -0.2703
     25 P          17.8614   70.5625   -4.7867 P.3     1  UNL1        0.2208
     26 O          17.5227   71.4010   -3.6158 O.2     1  UNL1       -0.5170
     27 O          16.7207   69.4452   -4.9937 O.3     1  UNL1       -0.4371
     28 O          17.9496   71.4870   -6.1012 O.3     1  UNL1       -0.2865
     29 C          19.3373   71.6625   -6.3922 C.3     1  UNL1        0.2611
     30 C          19.5898   73.1177   -6.7903 C.3     1  UNL1        0.1582
     31 C          18.7329   73.4583   -8.0148 C.3     1  UNL1        0.1625
     32 C          19.0119   72.4246   -9.1110 C.3     1  UNL1        0.1686
     33 C          18.7999   71.0215   -8.5385 C.3     1  UNL1        0.1760
     34 O          19.0696   74.7642   -8.4866 O.3     1  UNL1       -0.3801
     35 O          18.1180   72.6357  -10.2056 O.3     1  UNL1       -0.3794
     36 O          19.7102   70.7973   -7.4626 O.3     1  UNL1       -0.3263
     37 H          18.5083   74.9370   -9.2549 H       1  UNL1        0.2105
     38 H          18.3271   71.9648  -10.8709 H       1  UNL1        0.2105
     39 C          20.1570   74.3518   -4.7680 C.2     1  UNL1        0.2231
     40 C          19.7848   75.2591   -3.6232 C.3     1  UNL1        0.0946
     41 N          19.2289   73.9995   -5.6783 N.am    1  UNL1       -0.2994
     42 O          21.2923   73.9381   -4.8693 O.2     1  UNL1       -0.2751
     43 H          18.3202   74.3303   -5.5973 H       1  UNL1        0.1496
     44 C          19.0445   69.9825   -9.6347 C.3     1  UNL1        0.1693
     45 O          19.7472   70.5909  -10.7201 O.3     1  UNL1       -0.3794
     46 H          19.8804   69.9041  -11.3873 H       1  UNL1        0.2105
@<TRIPOS>BOND
     1    29    30    1
     2    29    28    1
     3    29    36    1
     4    30    31    1
     5    30    41    1
     6    31    32    1
     7    31    34    1
     8    32    33    1
     9    32    35    1
    10    33    44    1
    11    33    36    1
    12    44    45    1
    13    39    40    1
    14    39    41   am
    15    39    42    2
    16    41    43    1
    17    28    25    1
    18    34    37    1
    19    35    38    1
    20    45    46    1
    21    15    16   ar
    22    15    20   ar
    23    15     6    1
    24    16    17   ar
    25    16    21    2
    26    17    18   ar
    27    17    23    1
    28    18    19   ar
    29    18    22    2
    30    19    20   ar
    31     6     7    1
    32     6    11    1
    33     7     8    1
    34     7     9    1
    35     8    13    1
    36     9    10    1
    37     9    12    1
    38    10    11    1
    39    10     5    1
    40    12    14    1
    41     5     4    1
    42     4     1    1
    43     1     2    2
    44     1     3    1
    45     1    24    1
    46    24    25    1
    47    25    26    2
    48    25    27    1
