@<TRIPOS>MOLECULE
GDU
 43 45 0 0 0
SMALL
GASTEIGER

@<TRIPOS>ATOM
      1 P          21.2193   71.7622   -2.0127 P.3     1  UNL1        0.2189
      2 O          22.1242   70.6717   -2.4385 O.2     1  UNL1       -0.5170
      3 O          22.0039   73.1668   -2.0779 O.3     1  UNL1       -0.4371
      4 O          19.9436   71.8142   -2.9908 O.3     1  UNL1       -0.3112
      5 C          19.0373   70.8049   -2.5430 C.3     1  UNL1        0.1811
      6 C          17.2180   70.5618   -5.6346 C.3     1  UNL1        0.2383
      7 C          17.1610   69.1330   -5.0362 C.3     1  UNL1        0.1895
      8 O          15.9541   68.4685   -5.4168 O.3     1  UNL1       -0.3779
      9 C          17.1784   69.4182   -3.5119 C.3     1  UNL1        0.1713
     10 C          17.7725   70.8347   -3.4029 C.3     1  UNL1        0.1764
     11 O          18.0975   71.2691   -4.7348 O.3     1  UNL1       -0.3308
     12 O          15.8518   69.3827   -2.9819 O.3     1  UNL1       -0.3794
     13 H          15.9810   67.5892   -5.0144 H       1  UNL1        0.2106
     14 H          15.5137   68.4896   -3.1327 H       1  UNL1        0.2105
     15 N          17.7769   70.5350   -6.9872 N.ar    1  UNL1       -0.2551
     16 C          16.9534   70.4600   -8.0477 C.ar    1  UNL1        0.3323
     17 N          17.4415   70.4374   -9.3020 N.ar    1  UNL1       -0.2743
     18 C          18.7707   70.4799   -9.5153 C.ar    1  UNL1        0.2626
     19 C          19.6504   70.5533   -8.4076 C.ar    1  UNL1        0.0795
     20 C          19.1342   70.5788   -7.1604 C.ar    1  UNL1        0.0869
     21 O          15.7520   70.4214   -7.8710 O.2     1  UNL1       -0.2464
     22 O          19.2136   70.4547  -10.6500 O.2     1  UNL1       -0.2670
     23 H          16.8323   70.3874  -10.0558 H       1  UNL1        0.1734
     24 O          20.7289   71.4926   -0.5029 O.3     1  UNL1       -0.2703
     25 P          22.0500   71.2229    0.3757 P.3     1  UNL1        0.2208
     26 O          21.8570   70.0067    1.1958 O.2     1  UNL1       -0.5170
     27 O          23.3120   71.0147   -0.6033 O.3     1  UNL1       -0.4371
     28 O          22.3218   72.4833    1.3388 O.3     1  UNL1       -0.2858
     29 C          22.5546   71.9624    2.6481 C.3     1  UNL1        0.2704
     30 C          21.6500   72.6812    3.6503 C.3     1  UNL1        0.1967
     31 C          21.9494   74.1827    3.6045 C.3     1  UNL1        0.1715
     32 C          23.4532   74.3893    3.8182 C.3     1  UNL1        0.1694
     33 C          24.2215   73.5417    2.8011 C.3     1  UNL1        0.1761
     34 O          20.2815   72.4539    3.3086 O.3     1  UNL1       -0.3775
     35 O          21.2193   74.8496    4.6364 O.3     1  UNL1       -0.3794
     36 O          23.8066   73.9909    5.1435 O.3     1  UNL1       -0.3794
     37 O          23.9216   72.1611    3.0007 O.3     1  UNL1       -0.3258
     38 H          20.1404   71.4979    3.3432 H       1  UNL1        0.2106
     39 H          20.2831   74.6831    4.4691 H       1  UNL1        0.2105
     40 H          23.2962   74.5455    5.7479 H       1  UNL1        0.2105
     41 C          25.7241   73.7671    2.9835 C.3     1  UNL1        0.1693
     42 O          26.4144   72.5272    2.8186 O.3     1  UNL1       -0.3794
     43 H          27.3557   72.7125    2.9403 H       1  UNL1        0.2105
@<TRIPOS>BOND
     1    15    16   ar
     2    15    20   ar
     3    15     6    1
     4    16    17   ar
     5    16    21    2
     6    17    18   ar
     7    17    23    1
     8    18    19   ar
     9    18    22    2
    10    19    20   ar
    11     6     7    1
    12     6    11    1
    13     7     8    1
    14     7     9    1
    15     8    13    1
    16     9    10    1
    17     9    12    1
    18    10    11    1
    19    10     5    1
    20    12    14    1
    21     5     4    1
    22     4     1    1
    23     1     2    2
    24     1     3    1
    25     1    24    1
    26    24    25    1
    27    25    26    2
    28    25    27    1
    29    25    28    1
    30    28    29    1
    31    29    30    1
    32    29    37    1
    33    30    31    1
    34    30    34    1
    35    31    32    1
    36    31    35    1
    37    32    33    1
    38    32    36    1
    39    33    41    1
    40    33    37    1
    41    41    42    1
    42    34    38    1
    43    35    39    1
    44    36    40    1
    45    42    43    1
@<TRIPOS>MOLECULE
GDU
 43 45 0 0 0
SMALL
GASTEIGER

@<TRIPOS>ATOM
      1 P          20.5391   71.2066   -3.1653 P.3     1  UNL1        0.2189
      2 O          20.6984   71.5825   -4.5875 O.2     1  UNL1       -0.5170
      3 O          20.3370   72.5354   -2.2785 O.3     1  UNL1       -0.4371
      4 O          19.2547   70.2523   -3.0026 O.3     1  UNL1       -0.3112
      5 C          18.1633   71.0896   -2.6173 C.3     1  UNL1        0.1811
      6 C          16.7446   70.4762   -5.8635 C.3     1  UNL1        0.2383
      7 C          16.8106   69.0781   -5.1972 C.3     1  UNL1        0.1895
      8 O          15.7511   68.2400   -5.6645 O.3     1  UNL1       -0.3779
      9 C          16.6217   69.4239   -3.6972 C.3     1  UNL1        0.1713
     10 C          17.0084   70.9116   -3.6045 C.3     1  UNL1        0.1764
     11 O          17.4185   71.3326   -4.9170 O.3     1  UNL1       -0.3308
     12 O          15.2610   69.2285   -3.3070 O.3     1  UNL1       -0.3794
     13 H          15.8490   67.3895   -5.2140 H       1  UNL1        0.2106
     14 H          15.0622   68.2922   -3.4432 H       1  UNL1        0.2105
     15 N          17.4482   70.4719   -7.1472 N.ar    1  UNL1       -0.2551
     16 C          16.7447   70.4752   -8.2932 C.ar    1  UNL1        0.3323
     17 N          17.3672   70.4749   -9.4867 N.ar    1  UNL1       -0.2743
     18 C          18.7124   70.4613   -9.5520 C.ar    1  UNL1        0.2626
     19 C          19.4664   70.4519   -8.3530 C.ar    1  UNL1        0.0795
     20 C          18.8169   70.4567   -7.1695 C.ar    1  UNL1        0.0869
     21 O          15.5306   70.4879   -8.2502 O.2     1  UNL1       -0.2464
     22 O          19.2767   70.4562  -10.6318 O.2     1  UNL1       -0.2670
     23 H          16.8436   70.4817  -10.3038 H       1  UNL1        0.1734
     24 O          21.8560   70.4257   -2.6669 O.3     1  UNL1       -0.2703
     25 P          23.0052   71.5332   -2.4604 P.3     1  UNL1        0.2208
     26 O          24.3229   70.9425   -2.7825 O.2     1  UNL1       -0.5170
     27 O          22.7258   72.7843   -3.4355 O.3     1  UNL1       -0.4371
     28 O          23.0002   72.0348   -0.9312 O.3     1  UNL1       -0.2858
     29 C          23.1249   70.8712   -0.1125 C.3     1  UNL1        0.2704
     30 C          21.9258   70.7829    0.8329 C.3     1  UNL1        0.1967
     31 C          21.8764   72.0481    1.6950 C.3     1  UNL1        0.1715
     32 C          23.2357   72.2274    2.3805 C.3     1  UNL1        0.1694
     33 C          24.3360   72.2081    1.3166 C.3     1  UNL1        0.1761
     34 O          20.7224   70.6740    0.0706 O.3     1  UNL1       -0.3775
     35 O          20.8517   71.9165    2.6825 O.3     1  UNL1       -0.3794
     36 O          23.4454   71.1644    3.3111 O.3     1  UNL1       -0.3794
     37 O          24.3317   70.9506    0.6424 O.3     1  UNL1       -0.3258
     38 H          20.8004   69.8699   -0.4606 H       1  UNL1        0.2106
     39 H          20.0197   71.7943    2.2079 H       1  UNL1        0.2105
     40 H          22.7282   71.2120    3.9566 H       1  UNL1        0.2105
     41 C          25.6951   72.4208    1.9871 C.3     1  UNL1        0.1693
     42 O          26.1690   71.1771    2.5064 O.3     1  UNL1       -0.3794
     43 H          27.0256   71.3542    2.9189 H       1  UNL1        0.2105
@<TRIPOS>BOND
     1    15    16   ar
     2    15    20   ar
     3    15     6    1
     4    16    17   ar
     5    16    21    2
     6    17    18   ar
     7    17    23    1
     8    18    19   ar
     9    18    22    2
    10    19    20   ar
    11     6     7    1
    12     6    11    1
    13     7     8    1
    14     7     9    1
    15     8    13    1
    16     9    10    1
    17     9    12    1
    18    10    11    1
    19    10     5    1
    20    12    14    1
    21     5     4    1
    22     4     1    1
    23     1     2    2
    24     1     3    1
    25     1    24    1
    26    24    25    1
    27    25    26    2
    28    25    27    1
    29    25    28    1
    30    28    29    1
    31    29    30    1
    32    29    37    1
    33    30    31    1
    34    30    34    1
    35    31    32    1
    36    31    35    1
    37    32    33    1
    38    32    36    1
    39    33    41    1
    40    33    37    1
    41    41    42    1
    42    34    38    1
    43    35    39    1
    44    36    40    1
    45    42    43    1
@<TRIPOS>MOLECULE
GDU
 43 45 0 0 0
SMALL
GASTEIGER

@<TRIPOS>ATOM
      1 P          20.4104   71.3427   -0.6800 P.3     1  UNL1        0.2189
      2 O          21.3415   71.7032   -1.7721 O.2     1  UNL1       -0.5170
      3 O          19.8724   72.6836    0.0309 O.3     1  UNL1       -0.4371
      4 O          19.1675   70.5196   -1.2837 O.3     1  UNL1       -0.3112
      5 C          19.4281   70.3390   -2.6765 C.3     1  UNL1        0.1811
      6 C          17.4602   70.4664   -5.6829 C.3     1  UNL1        0.2383
      7 C          17.2611   69.0251   -5.1484 C.3     1  UNL1        0.1895
      8 O          15.9687   68.5251   -5.4992 O.3     1  UNL1       -0.3779
      9 C          17.3782   69.2281   -3.6153 C.3     1  UNL1        0.1713
     10 C          18.1395   70.5589   -3.4710 C.3     1  UNL1        0.1764
     11 O          18.4553   71.0202   -4.7960 O.3     1  UNL1       -0.3308
     12 O          16.0810   69.3194   -3.0229 O.3     1  UNL1       -0.3794
     13 H          15.9092   67.6292   -5.1391 H       1  UNL1        0.2106
     14 H          15.6336   68.4803   -3.1976 H       1  UNL1        0.2105
     15 N          17.9528   70.4443   -7.0612 N.ar    1  UNL1       -0.2551
     16 C          17.0775   70.4217   -8.0819 C.ar    1  UNL1        0.3323
     17 N          17.5042   70.4046   -9.3584 N.ar    1  UNL1       -0.2743
     18 C          18.8224   70.3998   -9.6348 C.ar    1  UNL1        0.2626
     19 C          19.7560   70.4176   -8.5697 C.ar    1  UNL1        0.0795
     20 C          19.3010   70.4388   -7.2988 C.ar    1  UNL1        0.0869
     21 O          15.8853   70.4263   -7.8482 O.2     1  UNL1       -0.2464
     22 O          19.2096   70.3795  -10.7899 O.2     1  UNL1       -0.2670
     23 H          16.8584   70.3928  -10.0827 H       1  UNL1        0.1734
     24 O          21.1815   70.4349    0.4034 O.3     1  UNL1       -0.2703
     25 P          22.1508   71.4178    1.2306 P.3     1  UNL1        0.2208
     26 O          23.3994   70.7031    1.5761 O.2     1  UNL1       -0.5170
     27 O          22.5022   72.7067    0.3309 O.3     1  UNL1       -0.4371
     28 O          21.4118   71.8918    2.5794 O.3     1  UNL1       -0.2858
     29 C          22.2331   72.8999    3.1703 C.3     1  UNL1        0.2704
     30 C          22.2751   74.1239    2.2542 C.3     1  UNL1        0.1967
     31 C          22.8297   73.7060    0.8888 C.3     1  UNL1        0.1715
     32 C          24.1755   73.0034    1.1007 C.3     1  UNL1        0.1694
     33 C          23.9887   71.8622    2.1036 C.3     1  UNL1        0.1761
     34 O          20.9558   74.6490    2.0962 O.3     1  UNL1       -0.3775
     35 O          23.0131   74.8633    0.0705 O.3     1  UNL1       -0.3794
     36 O          25.1286   73.9392    1.6065 O.3     1  UNL1       -0.3794
     37 O          23.5509   72.3885    3.3556 O.3     1  UNL1       -0.3258
     38 H          20.6445   74.8916    2.9789 H       1  UNL1        0.2106
     39 H          22.1466   75.2783   -0.0257 H       1  UNL1        0.2105
     40 H          25.2094   74.6406    0.9470 H       1  UNL1        0.2105
     41 C          25.3197   71.1321    2.2964 C.3     1  UNL1        0.1693
     42 O          25.0728   69.8194    2.8033 O.3     1  UNL1       -0.3794
     43 H          25.9347   69.3938    2.9097 H       1  UNL1        0.2105
@<TRIPOS>BOND
     1    15    16   ar
     2    15    20   ar
     3    15     6    1
     4    16    17   ar
     5    16    21    2
     6    17    18   ar
     7    17    23    1
     8    18    19   ar
     9    18    22    2
    10    19    20   ar
    11     6     7    1
    12     6    11    1
    13     7     8    1
    14     7     9    1
    15     8    13    1
    16     9    10    1
    17     9    12    1
    18    10    11    1
    19    10     5    1
    20    12    14    1
    21     5     4    1
    22     4     1    1
    23     1     2    2
    24     1     3    1
    25     1    24    1
    26    24    25    1
    27    25    26    2
    28    25    27    1
    29    25    28    1
    30    28    29    1
    31    29    30    1
    32    29    37    1
    33    30    31    1
    34    30    34    1
    35    31    32    1
    36    31    35    1
    37    32    33    1
    38    32    36    1
    39    33    41    1
    40    33    37    1
    41    41    42    1
    42    34    38    1
    43    35    39    1
    44    36    40    1
    45    42    43    1
@<TRIPOS>MOLECULE
GDU
 43 45 0 0 0
SMALL
GASTEIGER

@<TRIPOS>ATOM
      1 P          20.4281   71.0708   -1.7361 P.3     1  UNL1        0.2189
      2 O          20.3798   72.5472   -1.8229 O.2     1  UNL1       -0.5170
      3 O          20.6889   70.6314   -0.2091 O.3     1  UNL1       -0.4371
      4 O          19.0293   70.4571   -2.2397 O.3     1  UNL1       -0.3112
      5 C          18.1655   71.5625   -2.5089 C.3     1  UNL1        0.1811
      6 C          16.8677   70.5165   -5.6946 C.3     1  UNL1        0.2383
      7 C          17.1839   69.1941   -4.9501 C.3     1  UNL1        0.1895
      8 O          16.2891   68.1551   -5.3538 O.3     1  UNL1       -0.3779
      9 C          16.9415   69.5887   -3.4699 C.3     1  UNL1        0.1713
     10 C          17.0574   71.1243   -3.4682 C.3     1  UNL1        0.1764
     11 O          17.3815   71.5333   -4.8083 O.3     1  UNL1       -0.3308
     12 O          15.6387   69.1781   -3.0503 O.3     1  UNL1       -0.3794
     13 H          16.5384   67.3636   -4.8566 H       1  UNL1        0.2106
     14 H          15.6095   68.2150   -3.1298 H       1  UNL1        0.2105
     15 N          17.5564   70.5616   -6.9855 N.ar    1  UNL1       -0.2551
     16 C          16.8426   70.5147   -8.1242 C.ar    1  UNL1        0.3323
     17 N          17.4511   70.5580   -9.3241 N.ar    1  UNL1       -0.2743
     18 C          18.7932   70.6396   -9.4033 C.ar    1  UNL1        0.2626
     19 C          19.5584   70.6840   -8.2122 C.ar    1  UNL1        0.0795
     20 C          18.9225   70.6432   -7.0221 C.ar    1  UNL1        0.0869
     21 O          15.6311   70.4415   -8.0686 O.2     1  UNL1       -0.2464
     22 O          19.3451   70.6741  -10.4890 O.2     1  UNL1       -0.2670
     23 H          16.9199   70.5275  -10.1357 H       1  UNL1        0.1734
     24 O          21.6228   70.5185   -2.6635 O.3     1  UNL1       -0.2703
     25 P          22.9022   71.4534   -2.3822 P.3     1  UNL1        0.2208
     26 O          23.0533   71.6568   -0.9245 O.2     1  UNL1       -0.5170
     27 O          24.2248   70.7419   -2.9641 O.3     1  UNL1       -0.4371
     28 O          22.6977   72.8765   -3.1053 O.3     1  UNL1       -0.2858
     29 C          23.8686   73.1169   -3.8870 C.3     1  UNL1        0.2704
     30 C          24.3033   74.5736   -3.7183 C.3     1  UNL1        0.1967
     31 C          23.1590   75.4899   -4.1624 C.3     1  UNL1        0.1715
     32 C          22.7379   75.0951   -5.5824 C.3     1  UNL1        0.1694
     33 C          22.4198   73.5981   -5.6092 C.3     1  UNL1        0.1761
     34 O          24.6145   74.8244   -2.3467 O.3     1  UNL1       -0.3775
     35 O          23.6001   76.8493   -4.1503 O.3     1  UNL1       -0.3794
     36 O          23.8016   75.3788   -6.4925 O.3     1  UNL1       -0.3794
     37 O          23.5846   72.8522   -5.2588 O.3     1  UNL1       -0.3258
     38 H          25.3327   74.2223   -2.1089 H       1  UNL1        0.2106
     39 H          23.8653   77.0494   -3.2437 H       1  UNL1        0.2105
     40 H          23.9709   76.3284   -6.4378 H       1  UNL1        0.2105
     41 C          21.9651   73.2001   -7.0152 C.3     1  UNL1        0.1693
     42 O          21.2209   74.2726   -7.5956 O.3     1  UNL1       -0.3794
     43 H          20.9542   73.9824   -8.4788 H       1  UNL1        0.2105
@<TRIPOS>BOND
     1    15    16   ar
     2    15    20   ar
     3    15     6    1
     4    16    17   ar
     5    16    21    2
     6    17    18   ar
     7    17    23    1
     8    18    19   ar
     9    18    22    2
    10    19    20   ar
    11     6     7    1
    12     6    11    1
    13     7     8    1
    14     7     9    1
    15     8    13    1
    16     9    10    1
    17     9    12    1
    18    10    11    1
    19    10     5    1
    20    12    14    1
    21     5     4    1
    22     4     1    1
    23     1     2    2
    24     1     3    1
    25     1    24    1
    26    24    25    1
    27    25    26    2
    28    25    27    1
    29    25    28    1
    30    28    29    1
    31    29    30    1
    32    29    37    1
    33    30    31    1
    34    30    34    1
    35    31    32    1
    36    31    35    1
    37    32    33    1
    38    32    36    1
    39    33    41    1
    40    33    37    1
    41    41    42    1
    42    34    38    1
    43    35    39    1
    44    36    40    1
    45    42    43    1
@<TRIPOS>MOLECULE
GDU
 43 45 0 0 0
SMALL
GASTEIGER

@<TRIPOS>ATOM
      1 P          21.0361   70.8940   -3.4240 P.3     1  UNL1        0.2189
      2 O          21.6247   70.4561   -2.1390 O.2     1  UNL1       -0.5170
      3 O          20.6134   69.6027   -4.2882 O.3     1  UNL1       -0.4371
      4 O          19.7366   71.7979   -3.1391 O.3     1  UNL1       -0.3112
      5 C          18.7503   70.9364   -2.5687 C.3     1  UNL1        0.1811
      6 C          17.0497   70.5958   -5.7182 C.3     1  UNL1        0.2383
      7 C          17.0373   69.1687   -5.1130 C.3     1  UNL1        0.1895
      8 O          15.8753   68.4481   -5.5297 O.3     1  UNL1       -0.3779
      9 C          16.9900   69.4618   -3.5907 C.3     1  UNL1        0.1713
     10 C          17.5153   70.9044   -3.4709 C.3     1  UNL1        0.1764
     11 O          17.8653   71.3467   -4.7938 O.3     1  UNL1       -0.3308
     12 O          15.6492   69.3686   -3.1055 O.3     1  UNL1       -0.3794
     13 H          15.9284   67.5729   -5.1210 H       1  UNL1        0.2106
     14 H          15.3572   68.4603   -3.2619 H       1  UNL1        0.2105
     15 N          17.6548   70.5879   -7.0511 N.ar    1  UNL1       -0.2551
     16 C          16.8721   70.4690   -8.1381 C.ar    1  UNL1        0.3323
     17 N          17.4029   70.4625   -9.3750 N.ar    1  UNL1       -0.2743
     18 C          18.7352   70.5657   -9.5438 C.ar    1  UNL1        0.2626
     19 C          19.5725   70.6858   -8.4077 C.ar    1  UNL1        0.0795
     20 C          19.0137   70.6938   -7.1788 C.ar    1  UNL1        0.0869
     21 O          15.6685   70.3755   -8.0016 O.2     1  UNL1       -0.2464
     22 O          19.2170   70.5552  -10.6628 O.2     1  UNL1       -0.2670
     23 H          16.8227   70.3802  -10.1485 H       1  UNL1        0.1734
     24 O          22.1212   71.7554   -4.2444 O.3     1  UNL1       -0.2703
     25 P          23.2895   72.1433   -3.2077 P.3     1  UNL1        0.2208
     26 O          24.1757   70.9761   -3.0043 O.2     1  UNL1       -0.5170
     27 O          24.1472   73.3708   -3.8009 O.3     1  UNL1       -0.4371
     28 O          22.6383   72.5756   -1.8009 O.3     1  UNL1       -0.2858
     29 C          23.7120   72.9978   -0.9590 C.3     1  UNL1        0.2704
     30 C          23.8289   72.0464    0.2328 C.3     1  UNL1        0.1967
     31 C          22.5049   72.0473    1.0032 C.3     1  UNL1        0.1715
     32 C          22.1447   73.4946    1.3569 C.3     1  UNL1        0.1694
     33 C          22.1536   74.3364    0.0785 C.3     1  UNL1        0.1761
     34 O          24.1115   70.7262   -0.2346 O.3     1  UNL1       -0.3775
     35 O          22.6453   71.2788    2.2000 O.3     1  UNL1       -0.3794
     36 O          23.1013   74.0126    2.2824 O.3     1  UNL1       -0.3794
     37 O          23.4589   74.3229   -0.4977 O.3     1  UNL1       -0.3258
     38 H          24.9472   70.7745   -0.7184 H       1  UNL1        0.2106
     39 H          22.8828   70.3825    1.9307 H       1  UNL1        0.2105
     40 H          23.0649   73.4499    3.0669 H       1  UNL1        0.2105
     41 C          21.7616   75.7768    0.4155 C.3     1  UNL1        0.1693
     42 O          21.0953   75.8050    1.6790 O.3     1  UNL1       -0.3794
     43 H          20.8664   76.7281    1.8541 H       1  UNL1        0.2105
@<TRIPOS>BOND
     1    15    16   ar
     2    15    20   ar
     3    15     6    1
     4    16    17   ar
     5    16    21    2
     6    17    18   ar
     7    17    23    1
     8    18    19   ar
     9    18    22    2
    10    19    20   ar
    11     6     7    1
    12     6    11    1
    13     7     8    1
    14     7     9    1
    15     8    13    1
    16     9    10    1
    17     9    12    1
    18    10    11    1
    19    10     5    1
    20    12    14    1
    21     5     4    1
    22     4     1    1
    23     1     2    2
    24     1     3    1
    25     1    24    1
    26    24    25    1
    27    25    26    2
    28    25    27    1
    29    25    28    1
    30    28    29    1
    31    29    30    1
    32    29    37    1
    33    30    31    1
    34    30    34    1
    35    31    32    1
    36    31    35    1
    37    32    33    1
    38    32    36    1
    39    33    41    1
    40    33    37    1
    41    41    42    1
    42    34    38    1
    43    35    39    1
    44    36    40    1
    45    42    43    1
@<TRIPOS>MOLECULE
GDU
 43 45 0 0 0
SMALL
GASTEIGER

@<TRIPOS>ATOM
      1 P          20.3933   71.9193   -1.1070 P.3     1  UNL1        0.2189
      2 O          20.9782   70.5665   -1.2392 O.2     1  UNL1       -0.5170
      3 O          21.3257   72.9843   -1.8747 O.3     1  UNL1       -0.4371
      4 O          18.9200   71.9328   -1.7520 O.3     1  UNL1       -0.3112
      5 C          18.7187   70.6515   -2.3507 C.3     1  UNL1        0.1811
      6 C          17.0497   70.5175   -5.5325 C.3     1  UNL1        0.2383
      7 C          16.9864   69.0637   -4.9984 C.3     1  UNL1        0.1895
      8 O          15.8087   68.4004   -5.4635 O.3     1  UNL1       -0.3779
      9 C          16.9282   69.2834   -3.4643 C.3     1  UNL1        0.1713
     10 C          17.4952   70.7017   -3.2676 C.3     1  UNL1        0.1764
     11 O          17.8755   71.1969   -4.5630 O.3     1  UNL1       -0.3308
     12 O          15.5790   69.2079   -2.9996 O.3     1  UNL1       -0.3794
     13 H          15.8301   67.5051   -5.0977 H       1  UNL1        0.2106
     14 H          15.2618   68.3177   -3.2039 H       1  UNL1        0.2105
     15 N          17.6716   70.5560   -6.8571 N.ar    1  UNL1       -0.2551
     16 C          16.9051   70.4515   -7.9570 C.ar    1  UNL1        0.3323
     17 N          17.4514   70.4876   -9.1867 N.ar    1  UNL1       -0.2743
     18 C          18.7836   70.6198   -9.3352 C.ar    1  UNL1        0.2626
     19 C          19.6041   70.7252   -8.1855 C.ar    1  UNL1        0.0795
     20 C          19.0298   70.6904   -6.9643 C.ar    1  UNL1        0.0869
     21 O          15.7018   70.3322   -7.8389 O.2     1  UNL1       -0.2464
     22 O          19.2796   70.6477  -10.4478 O.2     1  UNL1       -0.2670
     23 H          16.8826   70.4150   -9.9696 H       1  UNL1        0.1734
     24 O          20.3019   72.3134    0.4515 O.3     1  UNL1       -0.2703
     25 P          21.6322   71.7439    1.1557 P.3     1  UNL1        0.2208
     26 O          21.6028   70.2647    1.1416 O.2     1  UNL1       -0.5170
     27 O          22.9283   72.2620    0.3521 O.3     1  UNL1       -0.4371
     28 O          21.7011   72.2658    2.6765 O.3     1  UNL1       -0.2858
     29 C          21.9260   73.6751    2.6217 C.3     1  UNL1        0.2704
     30 C          23.1200   74.0349    3.5073 C.3     1  UNL1        0.1967
     31 C          22.8279   73.5892    4.9434 C.3     1  UNL1        0.1715
     32 C          21.4873   74.1907    5.3800 C.3     1  UNL1        0.1694
     33 C          20.4159   73.8170    4.3526 C.3     1  UNL1        0.1761
     34 O          24.2898   73.3702    3.0268 O.3     1  UNL1       -0.3775
     35 O          23.8678   74.0485    5.8096 O.3     1  UNL1       -0.3794
     36 O          21.6045   75.6119    5.4599 O.3     1  UNL1       -0.3794
     37 O          20.7612   74.3586    3.0785 O.3     1  UNL1       -0.3258
     38 H          24.4311   73.6745    2.1200 H       1  UNL1        0.2106
     39 H          24.6907   73.6564    5.4913 H       1  UNL1        0.2105
     40 H          22.2920   75.7998    6.1121 H       1  UNL1        0.2105
     41 C          19.0657   74.3839    4.7971 C.3     1  UNL1        0.1693
     42 O          18.8430   74.0602    6.1706 O.3     1  UNL1       -0.3794
     43 H          17.9845   74.4351    6.4108 H       1  UNL1        0.2105
@<TRIPOS>BOND
     1    15    16   ar
     2    15    20   ar
     3    15     6    1
     4    16    17   ar
     5    16    21    2
     6    17    18   ar
     7    17    23    1
     8    18    19   ar
     9    18    22    2
    10    19    20   ar
    11     6     7    1
    12     6    11    1
    13     7     8    1
    14     7     9    1
    15     8    13    1
    16     9    10    1
    17     9    12    1
    18    10    11    1
    19    10     5    1
    20    12    14    1
    21     5     4    1
    22     4     1    1
    23     1     2    2
    24     1     3    1
    25     1    24    1
    26    24    25    1
    27    25    26    2
    28    25    27    1
    29    25    28    1
    30    28    29    1
    31    29    30    1
    32    29    37    1
    33    30    31    1
    34    30    34    1
    35    31    32    1
    36    31    35    1
    37    32    33    1
    38    32    36    1
    39    33    41    1
    40    33    37    1
    41    41    42    1
    42    34    38    1
    43    35    39    1
    44    36    40    1
    45    42    43    1
@<TRIPOS>MOLECULE
GDU
 43 45 0 0 0
SMALL
GASTEIGER

@<TRIPOS>ATOM
      1 P          21.9222   73.2433   -6.4942 P.3     1  UNL1        0.2189
      2 O          21.5967   74.5005   -5.7850 O.2     1  UNL1       -0.5170
      3 O          23.0724   72.4552   -5.6886 O.3     1  UNL1       -0.4371
      4 O          20.6063   72.3233   -6.5879 O.3     1  UNL1       -0.3112
      5 C          20.6524   71.6630   -7.8538 C.3     1  UNL1        0.1811
      6 C          17.5663   70.1572   -6.7882 C.3     1  UNL1        0.2383
      7 C          17.1429   71.1989   -7.8553 C.3     1  UNL1        0.1895
      8 O          15.9675   70.7712   -8.5472 O.3     1  UNL1       -0.3779
      9 C          18.3699   71.2095   -8.8037 C.3     1  UNL1        0.1713
     10 C          19.5142   70.6447   -7.9416 C.3     1  UNL1        0.1764
     11 O          18.9814   70.3934   -6.6297 O.3     1  UNL1       -0.3308
     12 O          18.1312   70.3752   -9.9389 O.3     1  UNL1       -0.3794
     13 H          15.7581   71.4601   -9.1933 H       1  UNL1        0.2106
     14 H          17.3689   70.7461  -10.4038 H       1  UNL1        0.2105
     15 N          16.8599   70.3908   -5.5275 N.ar    1  UNL1       -0.2551
     16 C          16.4182   69.3449   -4.8069 C.ar    1  UNL1        0.3323
     17 N          15.7691   69.5321   -3.6427 N.ar    1  UNL1       -0.2743
     18 C          15.5418   70.7778   -3.1835 C.ar    1  UNL1        0.2626
     19 C          15.9963   71.8892   -3.9348 C.ar    1  UNL1        0.0795
     20 C          16.6484   71.6730   -5.0969 C.ar    1  UNL1        0.0869
     21 O          16.6161   68.2153   -5.2081 O.2     1  UNL1       -0.2464
     22 O          14.9502   70.9484   -2.1321 O.2     1  UNL1       -0.2670
     23 H          15.4610   68.7656   -3.1334 H       1  UNL1        0.1734
     24 O          22.4463   73.5853   -7.9777 O.3     1  UNL1       -0.2703
     25 P          23.2711   74.9635   -7.8750 P.3     1  UNL1        0.2208
     26 O          22.3704   76.1001   -8.1682 O.2     1  UNL1       -0.5170
     27 O          23.8676   75.1220   -6.3873 O.3     1  UNL1       -0.4371
     28 O          24.4797   74.9473   -8.9375 O.3     1  UNL1       -0.2858
     29 C          24.7979   76.3096   -9.2249 C.3     1  UNL1        0.2704
     30 C          24.6582   76.5590  -10.7275 C.3     1  UNL1        0.1967
     31 C          25.5999   75.6134  -11.4795 C.3     1  UNL1        0.1715
     32 C          27.0162   75.7842  -10.9188 C.3     1  UNL1        0.1694
     33 C          26.9773   75.5914   -9.4008 C.3     1  UNL1        0.1761
     34 O          23.3095   76.3137  -11.1300 O.3     1  UNL1       -0.3775
     35 O          25.5903   75.9338  -12.8723 O.3     1  UNL1       -0.3794
     36 O          27.4974   77.0933  -11.2269 O.3     1  UNL1       -0.3794
     37 O          26.1350   76.5810   -8.8114 O.3     1  UNL1       -0.3258
     38 H          22.7530   76.9243  -10.6276 H       1  UNL1        0.2106
     39 H          24.6811   75.8245  -13.1783 H       1  UNL1        0.2105
     40 H          27.4993   77.1713  -12.1898 H       1  UNL1        0.2105
     41 C          28.3927   75.7261   -8.8348 C.3     1  UNL1        0.1693
     42 O          29.2934   74.9368   -9.6139 O.3     1  UNL1       -0.3794
     43 H          30.1720   75.0496   -9.2257 H       1  UNL1        0.2105
@<TRIPOS>BOND
     1    15    16   ar
     2    15    20   ar
     3    15     6    1
     4    16    17   ar
     5    16    21    2
     6    17    18   ar
     7    17    23    1
     8    18    19   ar
     9    18    22    2
    10    19    20   ar
    11     6     7    1
    12     6    11    1
    13     7     8    1
    14     7     9    1
    15     8    13    1
    16     9    10    1
    17     9    12    1
    18    10    11    1
    19    10     5    1
    20    12    14    1
    21     5     4    1
    22     4     1    1
    23     1     2    2
    24     1     3    1
    25     1    24    1
    26    24    25    1
    27    25    26    2
    28    25    27    1
    29    25    28    1
    30    28    29    1
    31    29    30    1
    32    29    37    1
    33    30    31    1
    34    30    34    1
    35    31    32    1
    36    31    35    1
    37    32    33    1
    38    32    36    1
    39    33    41    1
    40    33    37    1
    41    41    42    1
    42    34    38    1
    43    35    39    1
    44    36    40    1
    45    42    43    1
@<TRIPOS>MOLECULE
GDU
 43 45 0 0 0
SMALL
GASTEIGER

@<TRIPOS>ATOM
      1 P          21.2880   70.9979   -0.2526 P.3     1  UNL1        0.2189
      2 O          21.4864   70.0353    0.8535 O.2     1  UNL1       -0.5170
      3 O          22.6190   71.0578   -1.1570 O.3     1  UNL1       -0.4371
      4 O          20.0448   70.5270   -1.1580 O.3     1  UNL1       -0.3112
      5 C          19.9406   71.4594   -2.2351 C.3     1  UNL1        0.1811
      6 C          17.7850   70.7729   -5.0295 C.3     1  UNL1        0.2383
      7 C          17.9415   69.4067   -4.3140 C.3     1  UNL1        0.1895
      8 O          16.7669   68.6084   -4.4765 O.3     1  UNL1       -0.3779
      9 C          18.1195   69.8338   -2.8337 C.3     1  UNL1        0.1713
     10 C          18.5823   71.3000   -2.9203 C.3     1  UNL1        0.1764
     11 O          18.6963   71.6341   -4.3144 O.3     1  UNL1       -0.3308
     12 O          16.8785   69.7344   -2.1324 O.3     1  UNL1       -0.3794
     13 H          16.9286   67.7762   -4.0105 H       1  UNL1        0.2106
     14 H          16.6126   68.8054   -2.1637 H       1  UNL1        0.2105
     15 N          18.1722   70.6676   -6.4373 N.ar    1  UNL1       -0.2551
     16 C          17.2452   70.3641   -7.3630 C.ar    1  UNL1        0.3323
     17 N          17.5742   70.2647   -8.6644 N.ar    1  UNL1       -0.2743
     18 C          18.8467   70.4591   -9.0609 C.ar    1  UNL1        0.2626
     19 C          19.8349   70.7738   -8.0961 C.ar    1  UNL1        0.0795
     20 C          19.4769   70.8715   -6.7982 C.ar    1  UNL1        0.0869
     21 O          16.0931   70.1864   -7.0206 O.2     1  UNL1       -0.2464
     22 O          19.1464   70.3646  -10.2380 O.2     1  UNL1       -0.2670
     23 H          16.8915   70.0490   -9.3195 H       1  UNL1        0.1734
     24 O          20.9879   72.4583    0.3554 O.3     1  UNL1       -0.2703
     25 P          21.5828   72.4724    1.8507 P.3     1  UNL1        0.2208
     26 O          20.4782   72.3157    2.8224 O.2     1  UNL1       -0.5170
     27 O          22.6261   71.2577    2.0244 O.3     1  UNL1       -0.4371
     28 O          22.3380   73.8687    2.1158 O.3     1  UNL1       -0.2858
     29 C          23.7350   73.5791    2.1810 C.3     1  UNL1        0.2704
     30 C          24.3647   74.3650    3.3321 C.3     1  UNL1        0.1967
     31 C          24.1328   75.8613    3.0999 C.3     1  UNL1        0.1715
     32 C          24.6473   76.2259    1.7028 C.3     1  UNL1        0.1694
     33 C          23.9940   75.2994    0.6743 C.3     1  UNL1        0.1761
     34 O          23.7621   73.9716    4.5663 O.3     1  UNL1       -0.3775
     35 O          24.8399   76.6155    4.0866 O.3     1  UNL1       -0.3794
     36 O          26.0664   76.0697    1.6604 O.3     1  UNL1       -0.3794
     37 O          24.3525   73.9460    0.9494 O.3     1  UNL1       -0.3258
     38 H          23.9263   73.0242    4.6674 H       1  UNL1        0.2106
     39 H          24.4932   76.3459    4.9465 H       1  UNL1        0.2105
     40 H          26.4336   76.6658    2.3261 H       1  UNL1        0.2105
     41 C          24.4751   75.6776   -0.7284 C.3     1  UNL1        0.1693
     42 O          23.4421   75.4013   -1.6759 O.3     1  UNL1       -0.3794
     43 H          23.7843   75.6537   -2.5445 H       1  UNL1        0.2105
@<TRIPOS>BOND
     1    15    16   ar
     2    15    20   ar
     3    15     6    1
     4    16    17   ar
     5    16    21    2
     6    17    18   ar
     7    17    23    1
     8    18    19   ar
     9    18    22    2
    10    19    20   ar
    11     6     7    1
    12     6    11    1
    13     7     8    1
    14     7     9    1
    15     8    13    1
    16     9    10    1
    17     9    12    1
    18    10    11    1
    19    10     5    1
    20    12    14    1
    21     5     4    1
    22     4     1    1
    23     1     2    2
    24     1     3    1
    25     1    24    1
    26    24    25    1
    27    25    26    2
    28    25    27    1
    29    25    28    1
    30    28    29    1
    31    29    30    1
    32    29    37    1
    33    30    31    1
    34    30    34    1
    35    31    32    1
    36    31    35    1
    37    32    33    1
    38    32    36    1
    39    33    41    1
    40    33    37    1
    41    41    42    1
    42    34    38    1
    43    35    39    1
    44    36    40    1
    45    42    43    1
@<TRIPOS>MOLECULE
GDU
 43 45 0 0 0
SMALL
GASTEIGER

@<TRIPOS>ATOM
      1 P          21.0099   71.6990   -1.8052 P.3     1  UNL1        0.2189
      2 O          20.8278   73.0737   -1.2888 O.2     1  UNL1       -0.5170
      3 O          20.7525   70.6416   -0.6184 O.3     1  UNL1       -0.4371
      4 O          19.9657   71.4309   -2.9987 O.3     1  UNL1       -0.3112
      5 C          18.9291   70.6063   -2.4641 C.3     1  UNL1        0.1811
      6 C          17.1778   70.5288   -5.6032 C.3     1  UNL1        0.2383
      7 C          17.0620   69.0826   -5.0573 C.3     1  UNL1        0.1895
      8 O          15.8444   68.4707   -5.4888 O.3     1  UNL1       -0.3779
      9 C          17.0516   69.3141   -3.5238 C.3     1  UNL1        0.1713
     10 C          17.6868   70.7063   -3.3512 C.3     1  UNL1        0.1764
     11 O          18.0571   71.1760   -4.6590 O.3     1  UNL1       -0.3308
     12 O          15.7122   69.3027   -3.0259 O.3     1  UNL1       -0.3794
     13 H          15.8342   67.5775   -5.1172 H       1  UNL1        0.2106
     14 H          15.3502   68.4266   -3.2160 H       1  UNL1        0.2105
     15 N          17.7679   70.5311   -6.9429 N.ar    1  UNL1       -0.2551
     16 C          16.9711   70.4461   -8.0227 C.ar    1  UNL1        0.3323
     17 N          17.4880   70.4496   -9.2656 N.ar    1  UNL1       -0.2743
     18 C          18.8202   70.5289   -9.4477 C.ar    1  UNL1        0.2626
     19 C          19.6722   70.6132   -8.3193 C.ar    1  UNL1        0.0795
     20 C          19.1272   70.6119   -7.0842 C.ar    1  UNL1        0.0869
     21 O          15.7674   70.3744   -7.8742 O.2     1  UNL1       -0.2464
     22 O          19.2894   70.5274  -10.5721 O.2     1  UNL1       -0.2670
     23 H          16.8977   70.3919  -10.0337 H       1  UNL1        0.1734
     24 O          22.5129   71.5288   -2.3570 O.3     1  UNL1       -0.2703
     25 P          22.6738   72.5455   -3.5941 P.3     1  UNL1        0.2208
     26 O          23.8448   72.1508   -4.4077 O.2     1  UNL1       -0.5170
     27 O          21.3466   72.4959   -4.5053 O.3     1  UNL1       -0.4371
     28 O          22.8854   74.0406   -3.0373 O.3     1  UNL1       -0.2858
     29 C          24.2239   74.1145   -2.5448 C.3     1  UNL1        0.2704
     30 C          24.2146   74.6961   -1.1302 C.3     1  UNL1        0.1967
     31 C          23.5744   76.0872   -1.1674 C.3     1  UNL1        0.1715
     32 C          24.3037   76.9344   -2.2162 C.3     1  UNL1        0.1694
     33 C          24.3045   76.1832   -3.5499 C.3     1  UNL1        0.1761
     34 O          23.4603   73.8433   -0.2671 O.3     1  UNL1       -0.3775
     35 O          23.6908   76.7037    0.1167 O.3     1  UNL1       -0.3794
     36 O          25.6477   77.1667   -1.7923 O.3     1  UNL1       -0.3794
     37 O          24.9998   74.9457   -3.4049 O.3     1  UNL1       -0.3258
     38 H          23.8940   72.9793   -0.2800 H       1  UNL1        0.2106
     39 H          23.2298   76.1326    0.7442 H       1  UNL1        0.2105
     40 H          25.5982   77.6352   -0.9489 H       1  UNL1        0.2105
     41 C          25.0006   77.0359   -4.6131 C.3     1  UNL1        0.1693
     42 O          25.8086   76.1974   -5.4409 O.3     1  UNL1       -0.3794
     43 H          26.2280   76.7718   -6.0962 H       1  UNL1        0.2105
@<TRIPOS>BOND
     1    15    16   ar
     2    15    20   ar
     3    15     6    1
     4    16    17   ar
     5    16    21    2
     6    17    18   ar
     7    17    23    1
     8    18    19   ar
     9    18    22    2
    10    19    20   ar
    11     6     7    1
    12     6    11    1
    13     7     8    1
    14     7     9    1
    15     8    13    1
    16     9    10    1
    17     9    12    1
    18    10    11    1
    19    10     5    1
    20    12    14    1
    21     5     4    1
    22     4     1    1
    23     1     2    2
    24     1     3    1
    25     1    24    1
    26    24    25    1
    27    25    26    2
    28    25    27    1
    29    25    28    1
    30    28    29    1
    31    29    30    1
    32    29    37    1
    33    30    31    1
    34    30    34    1
    35    31    32    1
    36    31    35    1
    37    32    33    1
    38    32    36    1
    39    33    41    1
    40    33    37    1
    41    41    42    1
    42    34    38    1
    43    35    39    1
    44    36    40    1
    45    42    43    1
@<TRIPOS>MOLECULE
GDU
 43 45 0 0 0
SMALL
GASTEIGER

@<TRIPOS>ATOM
      1 P          22.6436   72.4417   -1.1730 P.3     1  UNL1        0.2189
      2 O          23.2257   71.0822   -1.2208 O.2     1  UNL1       -0.5170
      3 O          23.8265   73.5281   -1.0572 O.3     1  UNL1       -0.4371
      4 O          21.7971   72.7109   -2.5139 O.3     1  UNL1       -0.3112
      5 C          21.2900   71.4466   -2.9439 C.3     1  UNL1        0.1811
      6 C          20.4517   71.1706   -6.4293 C.3     1  UNL1        0.2383
      7 C          20.8027   72.6674   -6.2309 C.3     1  UNL1        0.1895
      8 O          21.3623   73.2224   -7.4234 O.3     1  UNL1       -0.3779
      9 C          21.8619   72.6055   -5.0997 C.3     1  UNL1        0.1713
     10 C          21.6106   71.2437   -4.4258 C.3     1  UNL1        0.1764
     11 O          20.4892   70.6352   -5.0894 O.3     1  UNL1       -0.3308
     12 O          23.1808   72.6649   -5.6464 O.3     1  UNL1       -0.3794
     13 H          21.5573   74.1508   -7.2341 H       1  UNL1        0.2106
     14 H          23.2563   73.5131   -6.1042 H       1  UNL1        0.2105
     15 N          19.1143   71.0243   -7.0060 N.ar    1  UNL1       -0.2551
     16 C          18.9647   70.9853   -8.3418 C.ar    1  UNL1        0.3323
     17 N          17.7464   70.8479   -8.8975 N.ar    1  UNL1       -0.2743
     18 C          16.6506   70.7567   -8.1196 C.ar    1  UNL1        0.2626
     19 C          16.7924   70.8020   -6.7110 C.ar    1  UNL1        0.0795
     20 C          18.0262   70.9361   -6.1799 C.ar    1  UNL1        0.0869
     21 O          19.9439   71.0660   -9.0564 O.2     1  UNL1       -0.2464
     22 O          15.5469   70.6371   -8.6218 O.2     1  UNL1       -0.2670
     23 H          17.6574   70.8174   -9.8634 H       1  UNL1        0.1734
     24 O          21.6759   72.5654    0.1079 O.3     1  UNL1       -0.2703
     25 P          22.2683   71.5832    1.2368 P.3     1  UNL1        0.2208
     26 O          21.6506   70.2457    1.1002 O.2     1  UNL1       -0.5170
     27 O          23.8638   71.4579    1.0553 O.3     1  UNL1       -0.4371
     28 O          21.9407   72.1803    2.6949 O.3     1  UNL1       -0.2858
     29 C          22.2440   73.5752    2.6498 C.3     1  UNL1        0.2704
     30 C          23.2912   73.9033    3.7152 C.3     1  UNL1        0.1967
     31 C          22.7418   73.5134    5.0910 C.3     1  UNL1        0.1715
     32 C          21.3801   74.1901    5.2846 C.3     1  UNL1        0.1694
     33 C          20.4766   73.8383    4.1002 C.3     1  UNL1        0.1761
     34 O          24.4886   73.1702    3.4510 O.3     1  UNL1       -0.3775
     35 O          23.6456   73.9475    6.1094 O.3     1  UNL1       -0.3794
     36 O          21.5557   75.6059    5.3540 O.3     1  UNL1       -0.3794
     37 O          21.0563   74.3261    2.8911 O.3     1  UNL1       -0.3258
     38 H          24.7941   73.4413    2.5747 H       1  UNL1        0.2106
     39 H          24.4886   73.5078    5.9415 H       1  UNL1        0.2105
     40 H          22.1339   75.7796    6.1081 H       1  UNL1        0.2105
     41 C          19.1024   74.4813    4.3007 C.3     1  UNL1        0.1693
     42 O          18.2503   73.5735    5.0013 O.3     1  UNL1       -0.3794
     43 H          17.3970   74.0160    5.1076 H       1  UNL1        0.2105
@<TRIPOS>BOND
     1    15    16   ar
     2    15    20   ar
     3    15     6    1
     4    16    17   ar
     5    16    21    2
     6    17    18   ar
     7    17    23    1
     8    18    19   ar
     9    18    22    2
    10    19    20   ar
    11     6     7    1
    12     6    11    1
    13     7     8    1
    14     7     9    1
    15     8    13    1
    16     9    10    1
    17     9    12    1
    18    10    11    1
    19    10     5    1
    20    12    14    1
    21     5     4    1
    22     4     1    1
    23     1     2    2
    24     1     3    1
    25     1    24    1
    26    24    25    1
    27    25    26    2
    28    25    27    1
    29    25    28    1
    30    28    29    1
    31    29    30    1
    32    29    37    1
    33    30    31    1
    34    30    34    1
    35    31    32    1
    36    31    35    1
    37    32    33    1
    38    32    36    1
    39    33    41    1
    40    33    37    1
    41    41    42    1
    42    34    38    1
    43    35    39    1
    44    36    40    1
    45    42    43    1
@<TRIPOS>MOLECULE
GDU
 43 45 0 0 0
SMALL
GASTEIGER

@<TRIPOS>ATOM
      1 P          21.2911   71.1046   -0.4113 P.3     1  UNL1        0.2189
      2 O          21.3400   70.2969    0.8276 O.2     1  UNL1       -0.5170
      3 O          22.7145   71.0253   -1.1600 O.3     1  UNL1       -0.4371
      4 O          20.1423   70.5323   -1.3805 O.3     1  UNL1       -0.3112
      5 C          19.9373   71.5100   -2.4016 C.3     1  UNL1        0.1811
      6 C          17.7306   70.7611   -5.1396 C.3     1  UNL1        0.2383
      7 C          17.9736   69.3940   -4.4505 C.3     1  UNL1        0.1895
      8 O          16.8335   68.5430   -4.5897 O.3     1  UNL1       -0.3779
      9 C          18.1772   69.8081   -2.9698 C.3     1  UNL1        0.1713
     10 C          18.5674   71.2958   -3.0476 C.3     1  UNL1        0.1764
     11 O          18.6221   71.6545   -4.4392 O.3     1  UNL1       -0.3308
     12 O          16.9646   69.6399   -2.2328 O.3     1  UNL1       -0.3794
     13 H          17.0487   67.7130   -4.1418 H       1  UNL1        0.2106
     14 H          16.7420   68.6998   -2.2705 H       1  UNL1        0.2105
     15 N          18.0784   70.6943   -6.5600 N.ar    1  UNL1       -0.2551
     16 C          17.1219   70.4369   -7.4694 C.ar    1  UNL1        0.3323
     17 N          17.4144   70.3735   -8.7817 N.ar    1  UNL1       -0.2743
     18 C          18.6793   70.5583   -9.2061 C.ar    1  UNL1        0.2626
     19 C          19.6983   70.8244   -8.2590 C.ar    1  UNL1        0.0795
     20 C          19.3767   70.8868   -6.9493 C.ar    1  UNL1        0.0869
     21 O          15.9762   70.2685   -7.1017 O.2     1  UNL1       -0.2464
     22 O          18.9460   70.4964  -10.3933 O.2     1  UNL1       -0.2670
     23 H          16.7107   70.1910   -9.4246 H       1  UNL1        0.1734
     24 O          20.9667   72.6372   -0.0391 O.3     1  UNL1       -0.2703
     25 P          22.1258   73.1294    0.9630 P.3     1  UNL1        0.2208
     26 O          21.5741   73.2581    2.3298 O.2     1  UNL1       -0.5170
     27 O          23.3238   72.0528    0.9676 O.3     1  UNL1       -0.4371
     28 O          22.6894   74.5554    0.4742 O.3     1  UNL1       -0.2858
     29 C          23.9405   74.3088   -0.1690 C.3     1  UNL1        0.2704
     30 C          24.9187   75.4341    0.1717 C.3     1  UNL1        0.1967
     31 C          24.3255   76.7679   -0.2926 C.3     1  UNL1        0.1715
     32 C          23.9572   76.6506   -1.7759 C.3     1  UNL1        0.1694
     33 C          23.0496   75.4332   -1.9685 C.3     1  UNL1        0.1761
     34 O          25.1341   75.4700    1.5836 O.3     1  UNL1       -0.3775
     35 O          25.2883   77.8092   -0.1153 O.3     1  UNL1       -0.3794
     36 O          25.1457   76.4943   -2.5524 O.3     1  UNL1       -0.3794
     37 O          23.7439   74.2488   -1.5798 O.3     1  UNL1       -0.3258
     38 H          25.5002   74.6102    1.8319 H       1  UNL1        0.2106
     39 H          25.4985   77.8386    0.8266 H       1  UNL1        0.2105
     40 H          25.6875   77.2787   -2.3958 H       1  UNL1        0.2105
     41 C          22.6479   75.3267   -3.4414 C.3     1  UNL1        0.1693
     42 O          22.6601   76.6271   -4.0328 O.3     1  UNL1       -0.3794
     43 H          22.4027   76.5161   -4.9584 H       1  UNL1        0.2105
@<TRIPOS>BOND
     1    15    16   ar
     2    15    20   ar
     3    15     6    1
     4    16    17   ar
     5    16    21    2
     6    17    18   ar
     7    17    23    1
     8    18    19   ar
     9    18    22    2
    10    19    20   ar
    11     6     7    1
    12     6    11    1
    13     7     8    1
    14     7     9    1
    15     8    13    1
    16     9    10    1
    17     9    12    1
    18    10    11    1
    19    10     5    1
    20    12    14    1
    21     5     4    1
    22     4     1    1
    23     1     2    2
    24     1     3    1
    25     1    24    1
    26    24    25    1
    27    25    26    2
    28    25    27    1
    29    25    28    1
    30    28    29    1
    31    29    30    1
    32    29    37    1
    33    30    31    1
    34    30    34    1
    35    31    32    1
    36    31    35    1
    37    32    33    1
    38    32    36    1
    39    33    41    1
    40    33    37    1
    41    41    42    1
    42    34    38    1
    43    35    39    1
    44    36    40    1
    45    42    43    1
@<TRIPOS>MOLECULE
GDU
 43 45 0 0 0
SMALL
GASTEIGER

@<TRIPOS>ATOM
      1 P          23.3750   72.4032   -3.2737 P.3     1  UNL1        0.2189
      2 O          23.8962   71.6320   -2.1234 O.2     1  UNL1       -0.5170
      3 O          24.6024   73.0802   -4.0663 O.3     1  UNL1       -0.4371
      4 O          22.5756   71.4183   -4.2626 O.3     1  UNL1       -0.3112
      5 C          22.3447   72.1437   -5.4713 C.3     1  UNL1        0.1811
      6 C          19.1389   70.6345   -6.0817 C.3     1  UNL1        0.2383
      7 C          18.9866   72.0907   -6.5908 C.3     1  UNL1        0.1895
      8 O          18.0598   72.1570   -7.6770 O.3     1  UNL1       -0.3779
      9 C          20.4246   72.4195   -7.0698 C.3     1  UNL1        0.1713
     10 C          21.3094   71.4051   -6.3215 C.3     1  UNL1        0.1764
     11 O          20.4481   70.6252   -5.4741 O.3     1  UNL1       -0.3308
     12 O          20.5333   72.2411   -8.4834 O.3     1  UNL1       -0.3794
     13 H          18.0108   73.0850   -7.9455 H       1  UNL1        0.2106
     14 H          19.9143   72.8611   -8.8923 H       1  UNL1        0.2105
     15 N          18.1080   70.3218   -5.0906 N.ar    1  UNL1       -0.2551
     16 C          16.9623   69.7367   -5.4819 C.ar    1  UNL1        0.3323
     17 N          15.9999   69.4355   -4.5902 N.ar    1  UNL1       -0.2743
     18 C          16.1666   69.7263   -3.2857 C.ar    1  UNL1        0.2626
     19 C          17.3659   70.3480   -2.8598 C.ar    1  UNL1        0.0795
     20 C          18.3165   70.6352   -3.7743 C.ar    1  UNL1        0.0869
     21 O          16.7978   69.4679   -6.6553 O.2     1  UNL1       -0.2464
     22 O          15.2941   69.4584   -2.4785 O.2     1  UNL1       -0.2670
     23 H          15.1811   69.0093   -4.8897 H       1  UNL1        0.1734
     24 O          22.3819   73.5534   -2.7416 O.3     1  UNL1       -0.2703
     25 P          21.4851   72.8945   -1.5790 P.3     1  UNL1        0.2208
     26 O          20.1696   73.5698   -1.5285 O.2     1  UNL1       -0.5170
     27 O          21.2722   71.3283   -1.8883 O.3     1  UNL1       -0.4371
     28 O          22.2311   73.0640   -0.1631 O.3     1  UNL1       -0.2858
     29 C          21.7724   72.0042    0.6771 C.3     1  UNL1        0.2704
     30 C          21.0512   72.5925    1.8909 C.3     1  UNL1        0.1967
     31 C          22.0181   73.5055    2.6511 C.3     1  UNL1        0.1715
     32 C          23.2916   72.7140    2.9694 C.3     1  UNL1        0.1694
     33 C          23.8443   72.1177    1.6725 C.3     1  UNL1        0.1761
     34 O          19.9195   73.3480    1.4554 O.3     1  UNL1       -0.3775
     35 O          21.4075   73.9461    3.8658 O.3     1  UNL1       -0.3794
     36 O          22.9852   71.6660    3.8903 O.3     1  UNL1       -0.3794
     37 O          22.8861   71.2246    1.1067 O.3     1  UNL1       -0.3258
     38 H          19.3432   72.7365    0.9770 H       1  UNL1        0.2106
     39 H          20.6075   74.4268    3.6186 H       1  UNL1        0.2105
     40 H          22.6362   72.0866    4.6869 H       1  UNL1        0.2105
     41 C          25.1355   71.3536    1.9742 C.3     1  UNL1        0.1693
     42 O          24.8134   70.0598    2.4873 O.3     1  UNL1       -0.3794
     43 H          25.6522   69.6117    2.6633 H       1  UNL1        0.2105
@<TRIPOS>BOND
     1    15    16   ar
     2    15    20   ar
     3    15     6    1
     4    16    17   ar
     5    16    21    2
     6    17    18   ar
     7    17    23    1
     8    18    19   ar
     9    18    22    2
    10    19    20   ar
    11     6     7    1
    12     6    11    1
    13     7     8    1
    14     7     9    1
    15     8    13    1
    16     9    10    1
    17     9    12    1
    18    10    11    1
    19    10     5    1
    20    12    14    1
    21     5     4    1
    22     4     1    1
    23     1     2    2
    24     1     3    1
    25     1    24    1
    26    24    25    1
    27    25    26    2
    28    25    27    1
    29    25    28    1
    30    28    29    1
    31    29    30    1
    32    29    37    1
    33    30    31    1
    34    30    34    1
    35    31    32    1
    36    31    35    1
    37    32    33    1
    38    32    36    1
    39    33    41    1
    40    33    37    1
    41    41    42    1
    42    34    38    1
    43    35    39    1
    44    36    40    1
    45    42    43    1
@<TRIPOS>MOLECULE
GDU
 43 45 0 0 0
SMALL
GASTEIGER

@<TRIPOS>ATOM
      1 P          22.7794   71.7849   -1.2073 P.3     1  UNL1        0.2189
      2 O          23.3765   73.0573   -1.6697 O.2     1  UNL1       -0.5170
      3 O          21.4848   72.0973   -0.3021 O.3     1  UNL1       -0.4371
      4 O          22.3442   70.9023   -2.4796 O.3     1  UNL1       -0.3112
      5 C          21.4712   71.7137   -3.2669 C.3     1  UNL1        0.1811
      6 C          20.4120   71.2137   -6.6663 C.3     1  UNL1        0.2383
      7 C          20.7645   72.7211   -6.5863 C.3     1  UNL1        0.1895
      8 O          21.2421   73.2006   -7.8453 O.3     1  UNL1       -0.3779
      9 C          21.8948   72.7345   -5.5244 C.3     1  UNL1        0.1713
     10 C          21.6971   71.4178   -4.7507 C.3     1  UNL1        0.1764
     11 O          20.5395   70.7649   -5.3003 O.3     1  UNL1       -0.3308
     12 O          23.1752   72.7629   -6.1580 O.3     1  UNL1       -0.3794
     13 H          21.4423   74.1398   -7.7282 H       1  UNL1        0.2106
     14 H          23.2150   73.5804   -6.6727 H       1  UNL1        0.2105
     15 N          19.0412   71.0270   -7.1447 N.ar    1  UNL1       -0.2551
     16 C          18.8079   70.8853   -8.4614 C.ar    1  UNL1        0.3323
     17 N          17.5574   70.7088   -8.9271 N.ar    1  UNL1       -0.2743
     18 C          16.5129   70.6811   -8.0771 C.ar    1  UNL1        0.2626
     19 C          16.7429   70.8348   -6.6880 C.ar    1  UNL1        0.0795
     20 C          18.0074   71.0061   -6.2474 C.ar    1  UNL1        0.0869
     21 O          19.7401   70.9076   -9.2402 O.2     1  UNL1       -0.2464
     22 O          15.3800   70.5261   -8.4981 O.2     1  UNL1       -0.2670
     23 H          17.4078   70.6038   -9.8802 H       1  UNL1        0.1734
     24 O          23.8602   70.9723   -0.3333 O.3     1  UNL1       -0.2703
     25 P          23.3037   70.9311    1.1762 P.3     1  UNL1        0.2208
     26 O          22.0334   70.1734    1.2128 O.2     1  UNL1       -0.5170
     27 O          24.3854   70.2104    2.1273 O.3     1  UNL1       -0.4371
     28 O          23.0493   72.4326    1.6967 O.3     1  UNL1       -0.2858
     29 C          23.0078   72.3758    3.1232 C.3     1  UNL1        0.2704
     30 C          21.6800   72.9522    3.6173 C.3     1  UNL1        0.1967
     31 C          21.5521   74.3986    3.1296 C.3     1  UNL1        0.1715
     32 C          22.8013   75.1741    3.5629 C.3     1  UNL1        0.1694
     33 C          24.0449   74.4296    3.0707 C.3     1  UNL1        0.1761
     34 O          20.5988   72.1740    3.1010 O.3     1  UNL1       -0.3775
     35 O          20.3888   74.9979    3.7041 O.3     1  UNL1       -0.3794
     36 O          22.8312   75.2747    4.9873 O.3     1  UNL1       -0.3794
     37 O          24.0923   73.1304    3.6588 O.3     1  UNL1       -0.3258
     38 H          20.7237   71.2722    3.4265 H       1  UNL1        0.2106
     39 H          19.6319   74.4724    3.4157 H       1  UNL1        0.2105
     40 H          22.0291   75.7437    5.2516 H       1  UNL1        0.2105
     41 C          25.2975   75.2137    3.4686 C.3     1  UNL1        0.1693
     42 O          26.0632   75.5115    2.2998 O.3     1  UNL1       -0.3794
     43 H          26.8412   76.0054    2.5933 H       1  UNL1        0.2105
@<TRIPOS>BOND
     1    15    16   ar
     2    15    20   ar
     3    15     6    1
     4    16    17   ar
     5    16    21    2
     6    17    18   ar
     7    17    23    1
     8    18    19   ar
     9    18    22    2
    10    19    20   ar
    11     6     7    1
    12     6    11    1
    13     7     8    1
    14     7     9    1
    15     8    13    1
    16     9    10    1
    17     9    12    1
    18    10    11    1
    19    10     5    1
    20    12    14    1
    21     5     4    1
    22     4     1    1
    23     1     2    2
    24     1     3    1
    25     1    24    1
    26    24    25    1
    27    25    26    2
    28    25    27    1
    29    25    28    1
    30    28    29    1
    31    29    30    1
    32    29    37    1
    33    30    31    1
    34    30    34    1
    35    31    32    1
    36    31    35    1
    37    32    33    1
    38    32    36    1
    39    33    41    1
    40    33    37    1
    41    41    42    1
    42    34    38    1
    43    35    39    1
    44    36    40    1
    45    42    43    1
@<TRIPOS>MOLECULE
GDU
 43 45 0 0 0
SMALL
GASTEIGER

@<TRIPOS>ATOM
      1 P          22.9206   73.4670   -4.4411 P.3     1  UNL1        0.2189
      2 O          23.3042   74.5380   -5.3872 O.2     1  UNL1       -0.5170
      3 O          24.1880   72.5115   -4.1697 O.3     1  UNL1       -0.4371
      4 O          22.4366   74.1231   -3.0547 O.3     1  UNL1       -0.3112
      5 C          21.0087   74.0832   -3.0542 C.3     1  UNL1        0.1811
      6 C          21.4303   72.8226    0.2865 C.3     1  UNL1        0.2383
      7 C          21.3948   74.3633    0.4536 C.3     1  UNL1        0.1895
      8 O          20.8374   74.7263    1.7188 O.3     1  UNL1       -0.3779
      9 C          20.4603   74.7944   -0.7067 C.3     1  UNL1        0.1713
     10 C          20.5105   73.6086   -1.6879 C.3     1  UNL1        0.1764
     11 O          21.4231   72.6387   -1.1451 O.3     1  UNL1       -0.3308
     12 O          19.1300   74.9995   -0.2268 O.3     1  UNL1       -0.3794
     13 H          20.8441   75.6928    1.7595 H       1  UNL1        0.2106
     14 H          19.1741   75.7120    0.4251 H       1  UNL1        0.2105
     15 N          22.6512   72.2662    0.8718 N.ar    1  UNL1       -0.2551
     16 C          22.6844   70.9738    1.2419 C.ar    1  UNL1        0.3323
     17 N          23.7955   70.4366    1.7793 N.ar    1  UNL1       -0.2743
     18 C          24.8949   71.1924    1.9648 C.ar    1  UNL1        0.2626
     19 C          24.8727   72.5567    1.5849 C.ar    1  UNL1        0.0795
     20 C          23.7466   73.0690    1.0445 C.ar    1  UNL1        0.0869
     21 O          21.7005   70.2795    1.0803 O.2     1  UNL1       -0.2464
     22 O          25.8995   70.7082    2.4554 O.2     1  UNL1       -0.2670
     23 H          23.8031   69.5010    2.0367 H       1  UNL1        0.1734
     24 O          21.7210   72.5985   -5.0729 O.3     1  UNL1       -0.2703
     25 P          21.3392   73.2832   -6.4783 P.3     1  UNL1        0.2208
     26 O          21.2790   74.7520   -6.3110 O.2     1  UNL1       -0.5170
     27 O          22.4582   72.9141   -7.5764 O.3     1  UNL1       -0.4371
     28 O          19.9067   72.7389   -6.9701 O.3     1  UNL1       -0.2858
     29 C          19.9894   71.3133   -6.9914 C.3     1  UNL1        0.2704
     30 C          19.3245   70.7836   -8.2628 C.3     1  UNL1        0.1967
     31 C          17.8628   71.2410   -8.2887 C.3     1  UNL1        0.1715
     32 C          17.1932   70.8162   -6.9770 C.3     1  UNL1        0.1694
     33 C          18.0194   71.3456   -5.8021 C.3     1  UNL1        0.1761
     34 O          20.0079   71.2946   -9.4088 O.3     1  UNL1       -0.3775
     35 O          17.1892   70.6335   -9.3932 O.3     1  UNL1       -0.3794
     36 O          17.1244   69.3909   -6.9152 O.3     1  UNL1       -0.3794
     37 O          19.3302   70.7835   -5.8436 O.3     1  UNL1       -0.3258
     38 H          20.9231   70.9888   -9.3472 H       1  UNL1        0.2106
     39 H          17.6499   70.9178  -10.1927 H       1  UNL1        0.2105
     40 H          16.6016   69.1028   -7.6747 H       1  UNL1        0.2105
     41 C          17.3406   70.9561   -4.4870 C.3     1  UNL1        0.1693
     42 O          15.9333   70.8292   -4.6977 O.3     1  UNL1       -0.3794
     43 H          15.5441   70.5828   -3.8473 H       1  UNL1        0.2105
@<TRIPOS>BOND
     1    15    16   ar
     2    15    20   ar
     3    15     6    1
     4    16    17   ar
     5    16    21    2
     6    17    18   ar
     7    17    23    1
     8    18    19   ar
     9    18    22    2
    10    19    20   ar
    11     6     7    1
    12     6    11    1
    13     7     8    1
    14     7     9    1
    15     8    13    1
    16     9    10    1
    17     9    12    1
    18    10    11    1
    19    10     5    1
    20    12    14    1
    21     5     4    1
    22     4     1    1
    23     1     2    2
    24     1     3    1
    25     1    24    1
    26    24    25    1
    27    25    26    2
    28    25    27    1
    29    25    28    1
    30    28    29    1
    31    29    30    1
    32    29    37    1
    33    30    31    1
    34    30    34    1
    35    31    32    1
    36    31    35    1
    37    32    33    1
    38    32    36    1
    39    33    41    1
    40    33    37    1
    41    41    42    1
    42    34    38    1
    43    35    39    1
    44    36    40    1
    45    42    43    1
@<TRIPOS>MOLECULE
GDU
 43 45 0 0 0
SMALL
GASTEIGER

@<TRIPOS>ATOM
      1 P          20.5708   71.7614   -1.7712 P.3     1  UNL1        0.2189
      2 O          19.9279   73.0105   -1.3065 O.2     1  UNL1       -0.5170
      3 O          20.6523   70.7138   -0.5510 O.3     1  UNL1       -0.4371
      4 O          19.7052   71.1249   -2.9680 O.3     1  UNL1       -0.3112
      5 C          18.5715   70.4951   -2.3691 C.3     1  UNL1        0.1811
      6 C          16.9813   70.4777   -5.5938 C.3     1  UNL1        0.2383
      7 C          16.8768   69.0119   -5.1005 C.3     1  UNL1        0.1895
      8 O          15.6988   68.3845   -5.6122 O.3     1  UNL1       -0.3779
      9 C          16.7839   69.1924   -3.5629 C.3     1  UNL1        0.1713
     10 C          17.3727   70.5935   -3.3143 C.3     1  UNL1        0.1764
     11 O          17.7951   71.1150   -4.5863 O.3     1  UNL1       -0.3308
     12 O          15.4222   69.1313   -3.1341 O.3     1  UNL1       -0.3794
     13 H          15.6938   67.4796   -5.2701 H       1  UNL1        0.2106
     14 H          15.0934   68.2533   -3.3699 H       1  UNL1        0.2105
     15 N          17.6372   70.5388   -6.9011 N.ar    1  UNL1       -0.2551
     16 C          16.8968   70.4786   -8.0220 C.ar    1  UNL1        0.3323
     17 N          17.4747   70.5362   -9.2363 N.ar    1  UNL1       -0.2743
     18 C          18.8125   70.6457   -9.3482 C.ar    1  UNL1        0.2626
     19 C          19.6056   70.7043   -8.1761 C.ar    1  UNL1        0.0795
     20 C          18.9999   70.6488   -6.9708 C.ar    1  UNL1        0.0869
     21 O          15.6889   70.3803   -7.9370 O.2     1  UNL1       -0.2464
     22 O          19.3369   70.6931  -10.4470 O.2     1  UNL1       -0.2670
     23 H          16.9246   70.4957  -10.0348 H       1  UNL1        0.1734
     24 O          22.0573   72.0874   -2.2969 O.3     1  UNL1       -0.2703
     25 P          22.9155   72.5459   -1.0150 P.3     1  UNL1        0.2208
     26 O          21.9997   72.9992    0.0550 O.2     1  UNL1       -0.5170
     27 O          23.7891   71.3022   -0.4817 O.3     1  UNL1       -0.4371
     28 O          23.8978   73.7517   -1.4287 O.3     1  UNL1       -0.2858
     29 C          23.3067   74.4004   -2.5554 C.3     1  UNL1        0.2704
     30 C          24.2646   74.3270   -3.7455 C.3     1  UNL1        0.1967
     31 C          25.5858   75.0019   -3.3645 C.3     1  UNL1        0.1715
     32 C          25.2848   76.4162   -2.8558 C.3     1  UNL1        0.1694
     33 C          24.2502   76.3309   -1.7309 C.3     1  UNL1        0.1761
     34 O          24.5040   72.9596   -4.0836 O.3     1  UNL1       -0.3775
     35 O          26.4370   75.0723   -4.5104 O.3     1  UNL1       -0.3794
     36 O          24.7697   77.2094   -3.9261 O.3     1  UNL1       -0.3794
     37 O          23.0406   75.7631   -2.2315 O.3     1  UNL1       -0.3258
     38 H          23.6465   72.5738   -4.3089 H       1  UNL1        0.2106
     39 H          26.5892   74.1646   -4.8021 H       1  UNL1        0.2105
     40 H          25.4502   77.2304   -4.6115 H       1  UNL1        0.2105
     41 C          23.9678   77.7352   -1.1924 C.3     1  UNL1        0.1693
     42 O          22.8483   78.2930   -1.8827 O.3     1  UNL1       -0.3794
     43 H          22.7034   79.1753   -1.5141 H       1  UNL1        0.2105
@<TRIPOS>BOND
     1    15    16   ar
     2    15    20   ar
     3    15     6    1
     4    16    17   ar
     5    16    21    2
     6    17    18   ar
     7    17    23    1
     8    18    19   ar
     9    18    22    2
    10    19    20   ar
    11     6     7    1
    12     6    11    1
    13     7     8    1
    14     7     9    1
    15     8    13    1
    16     9    10    1
    17     9    12    1
    18    10    11    1
    19    10     5    1
    20    12    14    1
    21     5     4    1
    22     4     1    1
    23     1     2    2
    24     1     3    1
    25     1    24    1
    26    24    25    1
    27    25    26    2
    28    25    27    1
    29    25    28    1
    30    28    29    1
    31    29    30    1
    32    29    37    1
    33    30    31    1
    34    30    34    1
    35    31    32    1
    36    31    35    1
    37    32    33    1
    38    32    36    1
    39    33    41    1
    40    33    37    1
    41    41    42    1
    42    34    38    1
    43    35    39    1
    44    36    40    1
    45    42    43    1
@<TRIPOS>MOLECULE
GDU
 43 45 0 0 0
SMALL
GASTEIGER

@<TRIPOS>ATOM
      1 P          20.6002   71.6511   -1.7910 P.3     1  UNL1        0.2189
      2 O          20.5197   70.5905   -0.7623 O.2     1  UNL1       -0.5170
      3 O          19.2851   72.5769   -1.7113 O.3     1  UNL1       -0.4371
      4 O          21.9072   72.5521   -1.5322 O.3     1  UNL1       -0.3112
      5 C          22.7458   71.8177   -0.6389 C.3     1  UNL1        0.1811
      6 C          24.5771   73.0567    2.1964 C.3     1  UNL1        0.2383
      7 C          24.6697   74.1933    1.1464 C.3     1  UNL1        0.1895
      8 O          24.7496   75.4706    1.7832 O.3     1  UNL1       -0.3779
      9 C          23.3293   74.0394    0.3817 C.3     1  UNL1        0.1713
     10 C          22.8967   72.5903    0.6728 C.3     1  UNL1        0.1764
     11 O          23.9239   71.9879    1.4791 O.3     1  UNL1       -0.3308
     12 O          22.3618   74.9666    0.8778 O.3     1  UNL1       -0.3794
     13 H          24.8050   76.1307    1.0782 H       1  UNL1        0.2106
     14 H          22.7159   75.8522    0.7200 H       1  UNL1        0.2105
     15 N          25.9122   72.6446    2.6327 N.ar    1  UNL1       -0.2551
     16 C          26.3621   71.4139    2.3308 C.ar    1  UNL1        0.3323
     17 N          27.5871   71.0114    2.7170 N.ar    1  UNL1       -0.2743
     18 C          28.3823   71.8366    3.4247 C.ar    1  UNL1        0.2626
     19 C          27.9194   73.1339    3.7549 C.ar    1  UNL1        0.0795
     20 C          26.6883   73.5136    3.3515 C.ar    1  UNL1        0.0869
     21 O          25.6563   70.6585    1.6925 O.2     1  UNL1       -0.2464
     22 O          29.4895   71.4715    3.7788 O.2     1  UNL1       -0.2670
     23 H          27.8973   70.1212    2.4866 H       1  UNL1        0.1734
     24 O          20.6923   70.9764   -3.2500 O.3     1  UNL1       -0.2703
     25 P          21.0567   72.1528   -4.2860 P.3     1  UNL1        0.2208
     26 O          20.9126   73.4633   -3.6145 O.2     1  UNL1       -0.5170
     27 O          22.5760   71.9725   -4.7894 O.3     1  UNL1       -0.4371
     28 O          20.0623   72.0838   -5.5495 O.3     1  UNL1       -0.2858
     29 C          19.9503   70.7077   -5.9148 C.3     1  UNL1        0.2704
     30 C          20.3205   70.5405   -7.3893 C.3     1  UNL1        0.1967
     31 C          19.3835   71.4037   -8.2397 C.3     1  UNL1        0.1715
     32 C          17.9348   71.0486   -7.8866 C.3     1  UNL1        0.1694
     33 C          17.7449   71.1793   -6.3733 C.3     1  UNL1        0.1761
     34 O          21.6725   70.9550   -7.5933 O.3     1  UNL1       -0.3775
     35 O          19.6193   71.1465   -9.6255 O.3     1  UNL1       -0.3794
     36 O          17.6588   69.7076   -8.2935 O.3     1  UNL1       -0.3794
     37 O          18.6113   70.2680   -5.6990 O.3     1  UNL1       -0.3258
     38 H          22.2245   70.3909   -7.0348 H       1  UNL1        0.2106
     39 H          20.5421   71.3718   -9.7989 H       1  UNL1        0.2105
     40 H          17.7964   69.6712   -9.2491 H       1  UNL1        0.2105
     41 C          16.2920   70.8599   -6.0139 C.3     1  UNL1        0.1693
     42 O          16.0999   69.4443   -6.0240 O.3     1  UNL1       -0.3794
     43 H          15.1744   69.2858   -5.7924 H       1  UNL1        0.2105
@<TRIPOS>BOND
     1    15    16   ar
     2    15    20   ar
     3    15     6    1
     4    16    17   ar
     5    16    21    2
     6    17    18   ar
     7    17    23    1
     8    18    19   ar
     9    18    22    2
    10    19    20   ar
    11     6     7    1
    12     6    11    1
    13     7     8    1
    14     7     9    1
    15     8    13    1
    16     9    10    1
    17     9    12    1
    18    10    11    1
    19    10     5    1
    20    12    14    1
    21     5     4    1
    22     4     1    1
    23     1     2    2
    24     1     3    1
    25     1    24    1
    26    24    25    1
    27    25    26    2
    28    25    27    1
    29    25    28    1
    30    28    29    1
    31    29    30    1
    32    29    37    1
    33    30    31    1
    34    30    34    1
    35    31    32    1
    36    31    35    1
    37    32    33    1
    38    32    36    1
    39    33    41    1
    40    33    37    1
    41    41    42    1
    42    34    38    1
    43    35    39    1
    44    36    40    1
    45    42    43    1
@<TRIPOS>MOLECULE
GDU
 43 45 0 0 0
SMALL
GASTEIGER

@<TRIPOS>ATOM
      1 P          21.1901   71.1058   -0.3359 P.3     1  UNL1        0.2189
      2 O          21.4789   70.1651    0.7692 O.2     1  UNL1       -0.5170
      3 O          22.4334   71.1297   -1.3589 O.3     1  UNL1       -0.4371
      4 O          19.8647   70.6306   -1.1132 O.3     1  UNL1       -0.3112
      5 C          19.9948   71.0766   -2.4640 C.3     1  UNL1        0.1811
      6 C          17.7326   70.7483   -5.2392 C.3     1  UNL1        0.2383
      7 C          17.7350   69.3493   -4.5716 C.3     1  UNL1        0.1895
      8 O          16.4713   68.7025   -4.7384 O.3     1  UNL1       -0.3779
      9 C          17.9841   69.7008   -3.0817 C.3     1  UNL1        0.1713
     10 C          18.6174   71.1037   -3.1289 C.3     1  UNL1        0.1764
     11 O          18.7505   71.4698   -4.5133 O.3     1  UNL1       -0.3308
     12 O          16.7503   69.7256   -2.3612 O.3     1  UNL1       -0.3794
     13 H          16.5391   67.8414   -4.3029 H       1  UNL1        0.2106
     14 H          16.3749   68.8364   -2.4180 H       1  UNL1        0.2105
     15 N          18.0842   70.6465   -6.6566 N.ar    1  UNL1       -0.2551
     16 C          17.1117   70.5332   -7.5784 C.ar    1  UNL1        0.3323
     17 N          17.4078   70.4415   -8.8882 N.ar    1  UNL1       -0.2743
     18 C          18.6910   70.4519   -9.2977 C.ar    1  UNL1        0.2626
     19 C          19.7260   70.5649   -8.3374 C.ar    1  UNL1        0.0795
     20 C          19.4010   70.6597   -7.0306 C.ar    1  UNL1        0.0869
     21 O          15.9496   70.5228   -7.2242 O.2     1  UNL1       -0.2464
     22 O          18.9601   70.3642  -10.4827 O.2     1  UNL1       -0.2670
     23 H          16.6931   70.3646   -9.5402 H       1  UNL1        0.1734
     24 O          20.9618   72.5826    0.2637 O.3     1  UNL1       -0.2703
     25 P          21.8061   72.6668    1.6311 P.3     1  UNL1        0.2208
     26 O          21.4103   71.5555    2.5241 O.2     1  UNL1       -0.5170
     27 O          23.3780   72.5537    1.2988 O.3     1  UNL1       -0.4371
     28 O          21.5124   74.0718    2.3588 O.3     1  UNL1       -0.2858
     29 C          20.5458   73.8169    3.3788 C.3     1  UNL1        0.2704
     30 C          19.4903   74.9238    3.3682 C.3     1  UNL1        0.1967
     31 C          20.1793   76.2719    3.6008 C.3     1  UNL1        0.1715
     32 C          21.0155   76.1802    4.8823 C.3     1  UNL1        0.1694
     33 C          21.9574   74.9783    4.7771 C.3     1  UNL1        0.1761
     34 O          18.8235   74.9371    2.1047 O.3     1  UNL1       -0.3775
     35 O          19.1935   77.2972    3.7403 O.3     1  UNL1       -0.3794
     36 O          20.1501   76.0183    6.0069 O.3     1  UNL1       -0.3794
     37 O          21.1949   73.7792    4.6476 O.3     1  UNL1       -0.3258
     38 H          18.4114   74.0690    1.9975 H       1  UNL1        0.2106
     39 H          18.6857   77.3108    2.9191 H       1  UNL1        0.2105
     40 H          19.5732   76.7928    6.0300 H       1  UNL1        0.2105
     41 C          22.8214   74.8977    6.0376 C.3     1  UNL1        0.1693
     42 O          22.2025   74.0238    6.9833 O.3     1  UNL1       -0.3794
     43 H          22.7774   74.0002    7.7606 H       1  UNL1        0.2105
@<TRIPOS>BOND
     1    15    16   ar
     2    15    20   ar
     3    15     6    1
     4    16    17   ar
     5    16    21    2
     6    17    18   ar
     7    17    23    1
     8    18    19   ar
     9    18    22    2
    10    19    20   ar
    11     6     7    1
    12     6    11    1
    13     7     8    1
    14     7     9    1
    15     8    13    1
    16     9    10    1
    17     9    12    1
    18    10    11    1
    19    10     5    1
    20    12    14    1
    21     5     4    1
    22     4     1    1
    23     1     2    2
    24     1     3    1
    25     1    24    1
    26    24    25    1
    27    25    26    2
    28    25    27    1
    29    25    28    1
    30    28    29    1
    31    29    30    1
    32    29    37    1
    33    30    31    1
    34    30    34    1
    35    31    32    1
    36    31    35    1
    37    32    33    1
    38    32    36    1
    39    33    41    1
    40    33    37    1
    41    41    42    1
    42    34    38    1
    43    35    39    1
    44    36    40    1
    45    42    43    1
@<TRIPOS>MOLECULE
GDU
 43 45 0 0 0
SMALL
GASTEIGER

@<TRIPOS>ATOM
      1 P          23.5611   72.1763   -3.3801 P.3     1  UNL1        0.2189
      2 O          24.3196   72.9012   -4.4235 O.2     1  UNL1       -0.5170
      3 O          24.3217   70.8033   -3.0203 O.3     1  UNL1       -0.4371
      4 O          23.4527   73.0911   -2.0617 O.3     1  UNL1       -0.3112
      5 C          22.3801   72.5640   -1.2794 C.3     1  UNL1        0.1811
      6 C          24.3135   71.7637    1.6445 C.3     1  UNL1        0.2383
      7 C          22.8876   72.0420    2.1851 C.3     1  UNL1        0.1895
      8 O          22.6246   71.2634    3.3546 O.3     1  UNL1       -0.3779
      9 C          21.9961   71.5819    1.0023 C.3     1  UNL1        0.1713
     10 C          22.9398   71.6194   -0.2142 C.3     1  UNL1        0.1764
     11 O          24.2148   72.1011    0.2445 O.3     1  UNL1       -0.3308
     12 O          21.5119   70.2566    1.2277 O.3     1  UNL1       -0.3794
     13 H          21.7264   71.4824    3.6393 H       1  UNL1        0.2106
     14 H          20.9780   70.2866    2.0331 H       1  UNL1        0.2105
     15 N          25.2967   72.6178    2.3128 N.ar    1  UNL1       -0.2551
     16 C          26.4676   72.0955    2.7183 C.ar    1  UNL1        0.3323
     17 N          27.3902   72.8598    3.3319 N.ar    1  UNL1       -0.2743
     18 C          27.1493   74.1653    3.5597 C.ar    1  UNL1        0.2626
     19 C          25.9178   74.7278    3.1433 C.ar    1  UNL1        0.0795
     20 C          25.0119   73.9397    2.5262 C.ar    1  UNL1        0.0869
     21 O          26.6994   70.9195    2.5193 O.2     1  UNL1       -0.2464
     22 O          27.9818   74.8568    4.1194 O.2     1  UNL1       -0.2670
     23 H          28.2316   72.4672    3.6140 H       1  UNL1        0.1734
     24 O          22.0837   71.8425   -3.9263 O.3     1  UNL1       -0.2703
     25 P          21.8542   72.7498   -5.2355 P.3     1  UNL1        0.2208
     26 O          21.9916   74.1783   -4.8758 O.2     1  UNL1       -0.5170
     27 O          22.9524   72.3697   -6.3508 O.3     1  UNL1       -0.4371
     28 O          20.3799   72.4827   -5.8231 O.3     1  UNL1       -0.2858
     29 C          20.3640   71.1401   -6.3096 C.3     1  UNL1        0.2704
     30 C          19.8499   71.1265   -7.7500 C.3     1  UNL1        0.1967
     31 C          18.4425   71.7304   -7.7829 C.3     1  UNL1        0.1715
     32 C          17.5657   70.9850   -6.7703 C.3     1  UNL1        0.1694
     33 C          18.2527   71.0111   -5.4027 C.3     1  UNL1        0.1761
     34 O          20.7228   71.8980   -8.5770 O.3     1  UNL1       -0.3775
     35 O          17.8907   71.5910   -9.0938 O.3     1  UNL1       -0.3794
     36 O          17.3885   69.6331   -7.1957 O.3     1  UNL1       -0.3794
     37 O          19.5132   70.3475   -5.4845 O.3     1  UNL1       -0.3258
     38 H          21.5962   71.4871   -8.5205 H       1  UNL1        0.2106
     39 H          18.4788   72.0632   -9.6967 H       1  UNL1        0.2105
     40 H          16.9593   69.6658   -8.0606 H       1  UNL1        0.2105
     41 C          17.3689   70.2988   -4.3763 C.3     1  UNL1        0.1693
     42 O          16.0042   70.3701   -4.7929 O.3     1  UNL1       -0.3794
     43 H          15.4821   69.9103   -4.1212 H       1  UNL1        0.2105
@<TRIPOS>BOND
     1    15    16   ar
     2    15    20   ar
     3    15     6    1
     4    16    17   ar
     5    16    21    2
     6    17    18   ar
     7    17    23    1
     8    18    19   ar
     9    18    22    2
    10    19    20   ar
    11     6     7    1
    12     6    11    1
    13     7     8    1
    14     7     9    1
    15     8    13    1
    16     9    10    1
    17     9    12    1
    18    10    11    1
    19    10     5    1
    20    12    14    1
    21     5     4    1
    22     4     1    1
    23     1     2    2
    24     1     3    1
    25     1    24    1
    26    24    25    1
    27    25    26    2
    28    25    27    1
    29    25    28    1
    30    28    29    1
    31    29    30    1
    32    29    37    1
    33    30    31    1
    34    30    34    1
    35    31    32    1
    36    31    35    1
    37    32    33    1
    38    32    36    1
    39    33    41    1
    40    33    37    1
    41    41    42    1
    42    34    38    1
    43    35    39    1
    44    36    40    1
    45    42    43    1
@<TRIPOS>MOLECULE
GDU
 43 45 0 0 0
SMALL
GASTEIGER

@<TRIPOS>ATOM
      1 P          19.9474   71.3746   -1.8027 P.3     1  UNL1        0.2189
      2 O          20.4096   70.7376   -0.5496 O.2     1  UNL1       -0.5170
      3 O          20.5266   70.5590   -3.0646 O.3     1  UNL1       -0.4371
      4 O          18.3398   71.3644   -1.8492 O.3     1  UNL1       -0.3112
      5 C          17.9498   72.2732   -2.8800 C.3     1  UNL1        0.1811
      6 C          16.8349   70.6860   -5.9074 C.3     1  UNL1        0.2383
      7 C          17.2507   69.5129   -4.9834 C.3     1  UNL1        0.1895
      8 O          16.4647   68.3494   -5.2513 O.3     1  UNL1       -0.3779
      9 C          16.9354   70.0810   -3.5752 C.3     1  UNL1        0.1713
     10 C          16.9112   71.6066   -3.7839 C.3     1  UNL1        0.1764
     11 O          17.2312   71.8577   -5.1633 O.3     1  UNL1       -0.3308
     12 O          15.6650   69.6114   -3.1199 O.3     1  UNL1       -0.3794
     13 H          16.7720   67.6599   -4.6464 H       1  UNL1        0.2106
     14 H          15.7254   68.6480   -3.0659 H       1  UNL1        0.2105
     15 N          17.5497   70.6189   -7.1831 N.ar    1  UNL1       -0.2551
     16 C          16.8563   70.5735   -8.3344 C.ar    1  UNL1        0.3323
     17 N          17.4893   70.5150   -9.5209 N.ar    1  UNL1       -0.2743
     18 C          18.8350   70.4910   -9.5733 C.ar    1  UNL1        0.2626
     19 C          19.5783   70.5325   -8.3684 C.ar    1  UNL1        0.0795
     20 C          18.9184   70.5952   -7.1923 C.ar    1  UNL1        0.0869
     21 O          15.6420   70.5949   -8.3030 O.2     1  UNL1       -0.2464
     22 O          19.4087   70.4333  -10.6466 O.2     1  UNL1       -0.2670
     23 H          16.9730   70.4872  -10.3422 H       1  UNL1        0.1734
     24 O          20.4775   72.8939   -1.8584 O.3     1  UNL1       -0.2703
     25 P          20.4961   73.4375   -0.3437 P.3     1  UNL1        0.2208
     26 O          21.0121   74.8240   -0.3238 O.2     1  UNL1       -0.5170
     27 O          19.0003   73.4135    0.2531 O.3     1  UNL1       -0.4371
     28 O          21.4456   72.4975    0.5533 O.3     1  UNL1       -0.2858
     29 C          22.7599   73.0525    0.4882 C.3     1  UNL1        0.2704
     30 C          23.7823   71.9244    0.3417 C.3     1  UNL1        0.1967
     31 C          23.6540   70.9768    1.5384 C.3     1  UNL1        0.1715
     32 C          23.7687   71.7976    2.8279 C.3     1  UNL1        0.1694
     33 C          22.7452   72.9350    2.7865 C.3     1  UNL1        0.1761
     34 O          23.5328   71.2064   -0.8681 O.3     1  UNL1       -0.3775
     35 O          24.6979   70.0017    1.4927 O.3     1  UNL1       -0.3794
     36 O          25.0865   72.3379    2.9348 O.3     1  UNL1       -0.3794
     37 O          23.0216   73.7913    1.6791 O.3     1  UNL1       -0.3258
     38 H          23.6169   71.8419   -1.5920 H       1  UNL1        0.2106
     39 H          24.5940   69.5192    0.6628 H       1  UNL1        0.2105
     40 H          25.6958   71.5883    2.9515 H       1  UNL1        0.2105
     41 C          22.8278   73.7406    4.0851 C.3     1  UNL1        0.1693
     42 O          23.7593   74.8114    3.9219 O.3     1  UNL1       -0.3794
     43 H          23.7812   75.2935    4.7600 H       1  UNL1        0.2105
@<TRIPOS>BOND
     1    15    16   ar
     2    15    20   ar
     3    15     6    1
     4    16    17   ar
     5    16    21    2
     6    17    18   ar
     7    17    23    1
     8    18    19   ar
     9    18    22    2
    10    19    20   ar
    11     6     7    1
    12     6    11    1
    13     7     8    1
    14     7     9    1
    15     8    13    1
    16     9    10    1
    17     9    12    1
    18    10    11    1
    19    10     5    1
    20    12    14    1
    21     5     4    1
    22     4     1    1
    23     1     2    2
    24     1     3    1
    25     1    24    1
    26    24    25    1
    27    25    26    2
    28    25    27    1
    29    25    28    1
    30    28    29    1
    31    29    30    1
    32    29    37    1
    33    30    31    1
    34    30    34    1
    35    31    32    1
    36    31    35    1
    37    32    33    1
    38    32    36    1
    39    33    41    1
    40    33    37    1
    41    41    42    1
    42    34    38    1
    43    35    39    1
    44    36    40    1
    45    42    43    1
@<TRIPOS>MOLECULE
GDU
 43 45 0 0 0
SMALL
GASTEIGER

@<TRIPOS>ATOM
      1 P          21.7598   72.4803   -6.3395 P.3     1  UNL1        0.2189
      2 O          23.0832   73.0505   -6.6760 O.2     1  UNL1       -0.5170
      3 O          20.6080   73.5433   -6.7087 O.3     1  UNL1       -0.4371
      4 O          21.5294   71.1268   -7.1771 O.3     1  UNL1       -0.3112
      5 C          20.6222   71.4436   -8.2340 C.3     1  UNL1        0.1811
      6 C          17.5897   70.0513   -6.8949 C.3     1  UNL1        0.2383
      7 C          17.1119   71.0942   -7.9374 C.3     1  UNL1        0.1895
      8 O          15.8699   70.6974   -8.5233 O.3     1  UNL1       -0.3779
      9 C          18.2552   71.0542   -8.9846 C.3     1  UNL1        0.1713
     10 C          19.4490   70.4621   -8.2128 C.3     1  UNL1        0.1764
     11 O          19.0199   70.2430   -6.8578 O.3     1  UNL1       -0.3308
     12 O          17.8962   70.2155  -10.0844 O.3     1  UNL1       -0.3794
     13 H          15.6291   71.3855   -9.1593 H       1  UNL1        0.2106
     14 H          17.1099   70.6059  -10.4894 H       1  UNL1        0.2105
     15 N          16.9988   70.3218   -5.5833 N.ar    1  UNL1       -0.2551
     16 C          16.3276   69.3496   -4.9409 C.ar    1  UNL1        0.3323
     17 N          15.7779   69.5713   -3.7324 N.ar    1  UNL1       -0.2743
     18 C          15.8837   70.7805   -3.1486 C.ar    1  UNL1        0.2626
     19 C          16.5829   71.8158   -3.8161 C.ar    1  UNL1        0.0795
     20 C          17.1283   71.5653   -5.0254 C.ar    1  UNL1        0.0869
     21 O          16.2243   68.2536   -5.4547 O.2     1  UNL1       -0.2464
     22 O          15.3823   70.9834   -2.0569 O.2     1  UNL1       -0.2670
     23 H          15.3006   68.8568   -3.2812 H       1  UNL1        0.1734
     24 O          21.7020   72.1543   -4.7638 O.3     1  UNL1       -0.2703
     25 P          22.8395   73.0493   -4.0600 P.3     1  UNL1        0.2208
     26 O          24.1733   72.5015   -4.3915 O.2     1  UNL1       -0.5170
     27 O          22.7351   74.5656   -4.5931 O.3     1  UNL1       -0.4371
     28 O          22.6305   73.0272   -2.4645 O.3     1  UNL1       -0.2858
     29 C          21.9956   71.7881   -2.1462 C.3     1  UNL1        0.2704
     30 C          20.6641   72.0635   -1.4458 C.3     1  UNL1        0.1967
     31 C          20.9280   72.8779   -0.1755 C.3     1  UNL1        0.1715
     32 C          21.9705   72.1399    0.6720 C.3     1  UNL1        0.1694
     33 C          23.2047   71.8603   -0.1893 C.3     1  UNL1        0.1761
     34 O          19.8072   72.8008   -2.3194 O.3     1  UNL1       -0.3775
     35 O          19.7144   73.0174    0.5662 O.3     1  UNL1       -0.3794
     36 O          21.4201   70.9081    1.1407 O.3     1  UNL1       -0.3794
     37 O          22.8446   71.0271   -1.2903 O.3     1  UNL1       -0.3258
     38 H          19.6745   72.2548   -3.1063 H       1  UNL1        0.2106
     39 H          19.0866   73.4743   -0.0078 H       1  UNL1        0.2105
     40 H          20.6446   71.1321    1.6716 H       1  UNL1        0.2105
     41 C          24.2659   71.1538    0.6572 C.3     1  UNL1        0.1693
     42 O          23.6260   70.2863    1.5949 O.3     1  UNL1       -0.3794
     43 H          24.3278   69.8610    2.1066 H       1  UNL1        0.2105
@<TRIPOS>BOND
     1    15    16   ar
     2    15    20   ar
     3    15     6    1
     4    16    17   ar
     5    16    21    2
     6    17    18   ar
     7    17    23    1
     8    18    19   ar
     9    18    22    2
    10    19    20   ar
    11     6     7    1
    12     6    11    1
    13     7     8    1
    14     7     9    1
    15     8    13    1
    16     9    10    1
    17     9    12    1
    18    10    11    1
    19    10     5    1
    20    12    14    1
    21     5     4    1
    22     4     1    1
    23     1     2    2
    24     1     3    1
    25     1    24    1
    26    24    25    1
    27    25    26    2
    28    25    27    1
    29    25    28    1
    30    28    29    1
    31    29    30    1
    32    29    37    1
    33    30    31    1
    34    30    34    1
    35    31    32    1
    36    31    35    1
    37    32    33    1
    38    32    36    1
    39    33    41    1
    40    33    37    1
    41    41    42    1
    42    34    38    1
    43    35    39    1
    44    36    40    1
    45    42    43    1
