@<TRIPOS>MOLECULE
*****
 43 45 0 0 0
SMALL
GASTEIGER

@<TRIPOS>ATOM
      1 P          22.9536   71.6821   -2.8555 P.3     1  UNL1        0.2189
      2 O          23.7792   72.9765   -3.3656 O.co2   1  UNL1       -0.4371
      3 O          23.5880   70.3600   -3.1734 O.2     1  UNL1       -0.5170
      4 O          21.4670   71.9096   -3.4523 O.3     1  UNL1       -0.3112
      5 C          20.5937   70.7967   -3.5343 C.3     1  UNL1        0.1811
      6 O          18.7659   71.8919   -4.6449 O.3     1  UNL1       -0.3308
      7 O          17.0124   70.7146   -2.5167 O.3     1  UNL1       -0.3794
      8 O          16.5844   69.0453   -4.6302 O.3     1  UNL1       -0.3779
      9 C          18.1619   70.1553   -3.1500 C.3     1  UNL1        0.1713
     10 C          17.8248   69.7185   -4.5604 C.3     1  UNL1        0.1895
     11 C          19.1574   71.2823   -3.3954 C.3     1  UNL1        0.1764
     12 C          17.8144   71.0421   -5.3061 C.3     1  UNL1        0.2383
     13 H          16.3623   70.0135   -2.3495 H       1  UNL1        0.2105
     14 H          16.6419   68.2097   -4.1410 H       1  UNL1        0.2106
     15 O          16.0229   70.4293   -7.4021 O.2     1  UNL1       -0.2464
     16 O          19.3889   70.5126  -10.5492 O.2     1  UNL1       -0.2670
     17 N          18.1955   70.8981   -6.6829 N.ar    1  UNL1       -0.2551
     18 N          17.7004   70.4714   -8.9674 N.ar    1  UNL1       -0.2743
     19 C          17.2184   70.5882   -7.6574 C.ar    1  UNL1        0.3323
     20 C          19.5251   71.0641   -7.0549 C.ar    1  UNL1        0.0869
     21 C          19.9687   70.9481   -8.3083 C.ar    1  UNL1        0.0795
     22 C          19.0122   70.6260   -9.3868 C.ar    1  UNL1        0.2626
     23 H          17.0377   70.2556   -9.6632 H       1  UNL1        0.1734
     24 O          22.7600   71.9732   -1.2773 O.3     1  UNL1       -0.2703
     25 P          22.3805   70.9864   -0.0545 P.3     1  UNL1        0.2208
     26 O          23.6249   69.9534   -0.0115 O.co2   1  UNL1       -0.4371
     27 O          21.0362   70.3314   -0.1869 O.2     1  UNL1       -0.5170
     28 O          22.5560   71.8914    1.2703 O.3     1  UNL1       -0.2858
     29 O          21.1249   73.3118    2.5156 O.3     1  UNL1       -0.3258
     30 O          24.5070   75.6797    2.4460 O.3     1  UNL1       -0.3794
     31 O          23.7382   74.3769    4.8872 O.3     1  UNL1       -0.3794
     32 O          23.7773   74.1352    0.1090 O.3     1  UNL1       -0.3775
     33 C          23.7780   74.4504    2.4969 C.3     1  UNL1        0.1715
     34 C          22.8924   74.4693    3.7443 C.3     1  UNL1        0.1694
     35 C          22.9267   74.3222    1.2350 C.3     1  UNL1        0.1967
     36 C          21.8876   73.3094    3.7280 C.3     1  UNL1        0.1761
     37 C          21.9278   73.1686    1.3423 C.3     1  UNL1        0.2704
     38 H          25.0500   75.7670    3.2441 H       1  UNL1        0.2105
     39 H          24.3681   75.1148    4.8853 H       1  UNL1        0.2105
     40 H          24.4047   74.8721    0.0519 H       1  UNL1        0.2106
     41 O          19.5991   73.1060    4.3839 O.3     1  UNL1       -0.3794
     42 C          20.8915   73.3994    4.8819 C.3     1  UNL1        0.1693
     43 H          18.9546   73.1592    5.1074 H       1  UNL1        0.2105
@<TRIPOS>UNITY_ATOM_ATTR
2 1
charge -1
26 1
charge -1
@<TRIPOS>BOND
     1    25    28    1
     2    25    24    1
     3    25    26    1
     4    25    27    2
     5     1     4    1
     6     1    24    1
     7     1     2    1
     8     1     3    2
     9     6    11    1
    10     6    12    1
    11    29    36    1
    12    29    37    1
    13     7     9    1
    14     7    13    1
    15     8    10    1
    16     8    14    1
    17    28    37    1
    18     4     5    1
    19    30    33    1
    20    30    38    1
    21    31    34    1
    22    31    39    1
    23    32    35    1
    24    32    40    1
    25    41    42    1
    26    41    43    1
    27    15    19    2
    28    16    22    2
    29    17    12    1
    30    17    19   ar
    31    17    20   ar
    32    18    19   ar
    33    18    22   ar
    34    18    23    1
    35     9    10    1
    36     9    11    1
    37    10    12    1
    38    11     5    1
    39    33    34    1
    40    33    35    1
    41    34    36    1
    42    35    37    1
    43    36    42    1
    44    20    21   ar
    45    21    22   ar
@<TRIPOS>MOLECULE
*****
 43 45 0 0 0
SMALL
GASTEIGER

@<TRIPOS>ATOM
      1 P          22.9440   71.7245   -2.4445 P.3     1  UNL1        0.2189
      2 O          23.7788   73.1030   -2.5873 O.co2   1  UNL1       -0.4371
      3 O          23.4877   70.5698   -3.2335 O.2     1  UNL1       -0.5170
      4 O          21.4223   72.1547   -2.7866 O.3     1  UNL1       -0.3112
      5 C          20.6465   71.2999   -3.6083 C.3     1  UNL1        0.1811
      6 O          18.7125   72.1652   -4.7418 O.3     1  UNL1       -0.3308
      7 O          17.1047   70.9916   -2.4994 O.3     1  UNL1       -0.3794
      8 O          16.7771   69.1563   -4.4896 O.3     1  UNL1       -0.3779
      9 C          18.2845   70.4878   -3.1235 C.3     1  UNL1        0.1713
     10 C          17.9581   69.9322   -4.4940 C.3     1  UNL1        0.1895
     11 C          19.1775   71.6740   -3.4656 C.3     1  UNL1        0.1764
     12 C          17.8228   71.1981   -5.3231 C.3     1  UNL1        0.2383
     13 H          16.5188   70.2523   -2.2714 H       1  UNL1        0.2105
     14 H          16.9137   68.3625   -3.9491 H       1  UNL1        0.2106
     15 O          16.0380   70.3460   -7.3397 O.2     1  UNL1       -0.2464
     16 O          19.3355   70.4506  -10.5579 O.2     1  UNL1       -0.2670
     17 N          18.1880   70.9948   -6.6967 N.ar    1  UNL1       -0.2551
     18 N          17.6813   70.3989   -8.9405 N.ar    1  UNL1       -0.2743
     19 C          17.2160   70.5646   -7.6297 C.ar    1  UNL1        0.3323
     20 C          19.4974   71.2219   -7.1065 C.ar    1  UNL1        0.0869
     21 C          19.9253   71.0580   -8.3600 C.ar    1  UNL1        0.0795
     22 C          18.9728   70.6106   -9.3965 C.ar    1  UNL1        0.2626
     23 H          17.0218   70.0994   -9.6077 H       1  UNL1        0.1734
     24 O          22.9041   71.4877   -0.8460 O.3     1  UNL1       -0.2703
     25 P          22.0271   70.4718    0.0550 P.3     1  UNL1        0.2208
     26 O          23.1485   69.6176    0.8489 O.co2   1  UNL1       -0.4371
     27 O          21.0534   69.6391   -0.7276 O.2     1  UNL1       -0.5170
     28 O          21.3516   71.4064    1.1842 O.3     1  UNL1       -0.2858
     29 O          21.8017   73.7258    0.9984 O.3     1  UNL1       -0.3258
     30 O          20.3635   73.6408    4.8682 O.3     1  UNL1       -0.3794
     31 O          18.7496   74.7739    2.7803 O.3     1  UNL1       -0.3794
     32 O          22.0406   71.4876    3.9034 O.3     1  UNL1       -0.3775
     33 C          20.4394   73.2405    3.4973 C.3     1  UNL1        0.1715
     34 C          20.1303   74.4583    2.6243 C.3     1  UNL1        0.1694
     35 C          21.8438   72.7141    3.2080 C.3     1  UNL1        0.1967
     36 C          20.4513   74.1788    1.1499 C.3     1  UNL1        0.1761
     37 C          22.0753   72.5165    1.7088 C.3     1  UNL1        0.2704
     38 H          19.4740   73.9756    5.0586 H       1  UNL1        0.2105
     39 H          18.5601   74.9478    3.7157 H       1  UNL1        0.2105
     40 H          21.8914   71.6260    4.8513 H       1  UNL1        0.2106
     41 O          21.0907   75.2676   -0.8786 O.3     1  UNL1       -0.3794
     42 C          20.3002   75.4282    0.2848 C.3     1  UNL1        0.1693
     43 H          21.0042   76.0552   -1.4389 H       1  UNL1        0.2105
@<TRIPOS>UNITY_ATOM_ATTR
2 1
charge -1
26 1
charge -1
@<TRIPOS>BOND
     1    25    28    1
     2    25    24    1
     3    25    26    1
     4    25    27    2
     5     1     4    1
     6     1    24    1
     7     1     2    1
     8     1     3    2
     9     6    11    1
    10     6    12    1
    11    29    36    1
    12    29    37    1
    13     7     9    1
    14     7    13    1
    15     8    10    1
    16     8    14    1
    17    28    37    1
    18     4     5    1
    19    30    33    1
    20    30    38    1
    21    31    34    1
    22    31    39    1
    23    32    35    1
    24    32    40    1
    25    41    42    1
    26    41    43    1
    27    15    19    2
    28    16    22    2
    29    17    12    1
    30    17    19   ar
    31    17    20   ar
    32    18    19   ar
    33    18    22   ar
    34    18    23    1
    35     9    10    1
    36     9    11    1
    37    10    12    1
    38    11     5    1
    39    33    34    1
    40    33    35    1
    41    34    36    1
    42    35    37    1
    43    36    42    1
    44    20    21   ar
    45    21    22   ar
@<TRIPOS>MOLECULE
*****
 43 45 0 0 0
SMALL
GASTEIGER

@<TRIPOS>ATOM
      1 P          21.9526   70.9229   -1.2721 P.3     1  UNL1        0.2189
      2 O          23.3125   70.2193   -0.7496 O.co2   1  UNL1       -0.4371
      3 O          21.0068   71.3553   -0.1905 O.2     1  UNL1       -0.5170
      4 O          21.3576   69.8688   -2.3457 O.3     1  UNL1       -0.3112
      5 C          20.8702   70.3639   -3.5806 C.3     1  UNL1        0.1811
      6 O          19.1278   71.6932   -4.5659 O.3     1  UNL1       -0.3308
      7 O          17.3547   70.6485   -2.3852 O.3     1  UNL1       -0.3794
      8 O          16.6410   69.1093   -4.5202 O.3     1  UNL1       -0.3779
      9 C          18.4022   69.9857   -3.0915 C.3     1  UNL1        0.1713
     10 C          17.9516   69.6369   -4.4946 C.3     1  UNL1        0.1895
     11 C          19.5063   71.0020   -3.3554 C.3     1  UNL1        0.1764
     12 C          18.0559   70.9777   -5.2015 C.3     1  UNL1        0.2383
     13 H          16.6381   70.0193   -2.2049 H       1  UNL1        0.2105
     14 H          16.6265   68.2566   -4.0582 H       1  UNL1        0.2106
     15 O          16.1240   70.4814   -7.2013 O.2     1  UNL1       -0.2464
     16 O          19.3101   70.4598  -10.5315 O.2     1  UNL1       -0.2670
     17 N          18.3528   70.8382   -6.5993 N.ar    1  UNL1       -0.2551
     18 N          17.7120   70.4712   -8.8579 N.ar    1  UNL1       -0.2743
     19 C          17.3096   70.5892   -7.5214 C.ar    1  UNL1        0.3323
     20 C          19.6660   70.9488   -7.0433 C.ar    1  UNL1        0.0869
     21 C          20.0333   70.8324   -8.3211 C.ar    1  UNL1        0.0795
     22 C          19.0042   70.5719   -9.3483 C.ar    1  UNL1        0.2626
     23 H          17.0023   70.2972   -9.5181 H       1  UNL1        0.1734
     24 O          22.5001   72.1230   -2.2064 O.3     1  UNL1       -0.2703
     25 P          22.4859   73.7253   -1.9932 P.3     1  UNL1        0.2208
     26 O          23.7834   73.9873   -1.0628 O.co2   1  UNL1       -0.4371
     27 O          21.2013   74.2597   -1.4291 O.2     1  UNL1       -0.5170
     28 O          22.8878   74.3327   -3.4335 O.3     1  UNL1       -0.2858
     29 O          23.0314   76.6084   -4.0794 O.3     1  UNL1       -0.3258
     30 O          21.7453   74.9881   -7.6531 O.3     1  UNL1       -0.3794
     31 O          24.4589   75.8944   -7.4022 O.3     1  UNL1       -0.3794
     32 O          20.6961   73.9806   -5.1504 O.3     1  UNL1       -0.3775
     33 C          22.4655   75.0123   -6.4178 C.3     1  UNL1        0.1715
     34 C          23.4388   76.1922   -6.4531 C.3     1  UNL1        0.1694
     35 C          21.4749   75.1667   -5.2653 C.3     1  UNL1        0.1967
     36 C          24.0533   76.4450   -5.0697 C.3     1  UNL1        0.1761
     37 C          22.1869   75.4636   -3.9444 C.3     1  UNL1        0.2704
     38 H          22.3685   74.8897   -8.3889 H       1  UNL1        0.2105
     39 H          24.0576   75.7364   -8.2712 H       1  UNL1        0.2105
     40 H          20.2503   73.8037   -5.9929 H       1  UNL1        0.2106
     41 O          25.6558   77.7261   -3.8451 O.3     1  UNL1       -0.3794
     42 C          24.9049   77.7124   -5.0452 C.3     1  UNL1        0.1693
     43 H          26.2029   78.5270   -3.8158 H       1  UNL1        0.2105
@<TRIPOS>UNITY_ATOM_ATTR
2 1
charge -1
26 1
charge -1
@<TRIPOS>BOND
     1    25    28    1
     2    25    24    1
     3    25    26    1
     4    25    27    2
     5     1     4    1
     6     1    24    1
     7     1     2    1
     8     1     3    2
     9     6    11    1
    10     6    12    1
    11    29    36    1
    12    29    37    1
    13     7     9    1
    14     7    13    1
    15     8    10    1
    16     8    14    1
    17    28    37    1
    18     4     5    1
    19    30    33    1
    20    30    38    1
    21    31    34    1
    22    31    39    1
    23    32    35    1
    24    32    40    1
    25    41    42    1
    26    41    43    1
    27    15    19    2
    28    16    22    2
    29    17    12    1
    30    17    19   ar
    31    17    20   ar
    32    18    19   ar
    33    18    22   ar
    34    18    23    1
    35     9    10    1
    36     9    11    1
    37    10    12    1
    38    11     5    1
    39    33    34    1
    40    33    35    1
    41    34    36    1
    42    35    37    1
    43    36    42    1
    44    20    21   ar
    45    21    22   ar
@<TRIPOS>MOLECULE
*****
 43 45 0 0 0
SMALL
GASTEIGER

@<TRIPOS>ATOM
      1 P          20.6770   71.8678   -2.6576 P.3     1  UNL1        0.2189
      2 O          21.0452   70.3391   -3.0384 O.co2   1  UNL1       -0.4371
      3 O          19.2397   72.2444   -2.8666 O.2     1  UNL1       -0.5170
      4 O          21.7598   72.7446   -3.4802 O.3     1  UNL1       -0.3112
      5 C          21.2899   73.6490   -4.4646 C.3     1  UNL1        0.1811
      6 O          21.4754   72.1404   -6.3257 O.3     1  UNL1       -0.3308
      7 O          22.8437   74.3850   -7.7681 O.3     1  UNL1       -0.3794
      8 O          20.3173   74.4737   -8.7909 O.3     1  UNL1       -0.3779
      9 C          21.7639   74.4363   -6.8371 C.3     1  UNL1        0.1713
     10 C          20.4849   73.9527   -7.4882 C.3     1  UNL1        0.1895
     11 C          22.0058   73.3674   -5.7786 C.3     1  UNL1        0.1764
     12 C          20.6782   72.4458   -7.4816 C.3     1  UNL1        0.2383
     13 H          22.7115   75.0590   -8.4538 H       1  UNL1        0.2105
     14 H          20.1981   75.4351   -8.7420 H       1  UNL1        0.2106
     15 O          19.0013   71.8783   -9.6825 O.2     1  UNL1       -0.2464
     16 O          15.9290   69.7111   -7.0168 O.2     1  UNL1       -0.2670
     17 N          19.4344   71.7344   -7.3915 N.ar    1  UNL1       -0.2551
     18 N          17.4730   70.7995   -8.3534 N.ar    1  UNL1       -0.2743
     19 C          18.6672   71.5027   -8.5569 C.ar    1  UNL1        0.3323
     20 C          18.9870   71.2744   -6.1577 C.ar    1  UNL1        0.0869
     21 C          17.8452   70.6065   -5.9804 C.ar    1  UNL1        0.0795
     22 C          16.9848   70.3229   -7.1471 C.ar    1  UNL1        0.2626
     23 H          16.9219   70.6268   -9.1511 H       1  UNL1        0.1734
     24 O          21.1907   71.9958   -1.1303 O.3     1  UNL1       -0.2703
     25 P          22.0192   70.9664   -0.1992 P.3     1  UNL1        0.2208
     26 O          23.3353   70.6435   -1.0831 O.co2   1  UNL1       -0.4371
     27 O          21.2413   69.7525    0.2193 O.2     1  UNL1       -0.5170
     28 O          22.5613   71.8682    1.0246 O.3     1  UNL1       -0.2858
     29 O          21.5212   72.9677    2.8483 O.3     1  UNL1       -0.3258
     30 O          24.1787   75.9219    1.7256 O.3     1  UNL1       -0.3794
     31 O          24.6443   74.4391    4.1406 O.3     1  UNL1       -0.3794
     32 O          22.8540   74.3275   -0.2949 O.3     1  UNL1       -0.3775
     33 C          23.7357   74.5780    1.9325 C.3     1  UNL1        0.1715
     34 C          23.4166   74.4016    3.4183 C.3     1  UNL1        0.1694
     35 C          22.4922   74.3258    1.0819 C.3     1  UNL1        0.1967
     36 C          22.6862   73.0765    3.6746 C.3     1  UNL1        0.1761
     37 C          21.8142   73.0049    1.4503 C.3     1  UNL1        0.2704
     38 H          24.9684   76.0884    2.2624 H       1  UNL1        0.2105
     39 H          25.0957   75.2807    3.9698 H       1  UNL1        0.2105
     40 H          23.2818   75.1690   -0.5156 H       1  UNL1        0.2106
     41 O          20.8170   73.1449    5.1613 O.3     1  UNL1       -0.3794
     42 C          22.2190   72.9518    5.1231 C.3     1  UNL1        0.1693
     43 H          20.5054   73.0680    6.0771 H       1  UNL1        0.2105
@<TRIPOS>UNITY_ATOM_ATTR
2 1
charge -1
26 1
charge -1
@<TRIPOS>BOND
     1    25    28    1
     2    25    24    1
     3    25    26    1
     4    25    27    2
     5     1     4    1
     6     1    24    1
     7     1     2    1
     8     1     3    2
     9     6    11    1
    10     6    12    1
    11    29    36    1
    12    29    37    1
    13     7     9    1
    14     7    13    1
    15     8    10    1
    16     8    14    1
    17    28    37    1
    18     4     5    1
    19    30    33    1
    20    30    38    1
    21    31    34    1
    22    31    39    1
    23    32    35    1
    24    32    40    1
    25    41    42    1
    26    41    43    1
    27    15    19    2
    28    16    22    2
    29    17    12    1
    30    17    19   ar
    31    17    20   ar
    32    18    19   ar
    33    18    22   ar
    34    18    23    1
    35     9    10    1
    36     9    11    1
    37    10    12    1
    38    11     5    1
    39    33    34    1
    40    33    35    1
    41    34    36    1
    42    35    37    1
    43    36    42    1
    44    20    21   ar
    45    21    22   ar
@<TRIPOS>MOLECULE
*****
 43 45 0 0 0
SMALL
GASTEIGER

@<TRIPOS>ATOM
      1 P          23.0216   71.9208   -3.1965 P.3     1  UNL1        0.2189
      2 O          23.7954   72.9368   -4.1896 O.co2   1  UNL1       -0.4371
      3 O          23.5497   70.5164   -3.1893 O.2     1  UNL1       -0.5170
      4 O          21.4656   72.0842   -3.6089 O.3     1  UNL1       -0.3112
      5 C          20.6186   70.9522   -3.5145 C.3     1  UNL1        0.1811
      6 O          18.7722   71.9927   -4.6466 O.3     1  UNL1       -0.3308
      7 O          17.0423   70.8485   -2.4812 O.3     1  UNL1       -0.3794
      8 O          16.6298   69.1181   -4.5481 O.3     1  UNL1       -0.3779
      9 C          18.1971   70.2883   -3.1040 C.3     1  UNL1        0.1713
     10 C          17.8611   69.8097   -4.5010 C.3     1  UNL1        0.1895
     11 C          19.1763   71.4217   -3.3829 C.3     1  UNL1        0.1764
     12 C          17.8300   71.1128   -5.2814 C.3     1  UNL1        0.2383
     13 H          16.4024   70.1434   -2.2930 H       1  UNL1        0.2105
     14 H          16.7004   68.2967   -4.0373 H       1  UNL1        0.2106
     15 O          16.0357   70.4436   -7.3576 O.2     1  UNL1       -0.2464
     16 O          19.3935   70.4646  -10.5145 O.2     1  UNL1       -0.2670
     17 N          18.2082   70.9375   -6.6553 N.ar    1  UNL1       -0.2551
     18 N          17.7090   70.4548   -8.9278 N.ar    1  UNL1       -0.2743
     19 C          17.2299   70.6009   -7.6197 C.ar    1  UNL1        0.3323
     20 C          19.5363   71.0997   -7.0346 C.ar    1  UNL1        0.0869
     21 C          19.9772   70.9555   -8.2860 C.ar    1  UNL1        0.0795
     22 C          19.0192   70.6043   -9.3542 C.ar    1  UNL1        0.2626
     23 H          17.0455   70.2200   -9.6166 H       1  UNL1        0.1734
     24 O          23.1006   72.6765   -1.7697 O.3     1  UNL1       -0.2703
     25 P          23.4375   74.2136   -1.3998 P.3     1  UNL1        0.2208
     26 O          22.0779   74.9967   -1.7946 O.co2   1  UNL1       -0.4371
     27 O          24.6746   74.7487   -2.0609 O.2     1  UNL1       -0.5170
     28 O          23.4734   74.2471    0.2134 O.3     1  UNL1       -0.2858
     29 O          21.6727   74.7066    1.6841 O.3     1  UNL1       -0.3258
     30 O          24.7696   76.2685    3.9247 O.3     1  UNL1       -0.3794
     31 O          23.5329   73.8070    4.7368 O.3     1  UNL1       -0.3794
     32 O          24.7593   76.5974    1.0487 O.3     1  UNL1       -0.3775
     33 C          24.1505   75.3517    3.0183 C.3     1  UNL1        0.1715
     34 C          22.9879   74.6714    3.7438 C.3     1  UNL1        0.1694
     35 C          23.6469   76.1199    1.7978 C.3     1  UNL1        0.1967
     36 C          22.1133   73.8764    2.7650 C.3     1  UNL1        0.1761
     37 C          22.7471   75.2521    0.9160 C.3     1  UNL1        0.2704
     38 H          25.0920   75.7871    4.7017 H       1  UNL1        0.2105
     39 H          24.0834   74.3212    5.3481 H       1  UNL1        0.2105
     40 H          25.3209   77.1455    1.6180 H       1  UNL1        0.2106
     41 O          20.8118   71.9233    3.2127 O.3     1  UNL1       -0.3794
     42 C          20.8611   73.3200    3.4392 C.3     1  UNL1        0.1693
     43 H          20.0200   71.5555    3.6364 H       1  UNL1        0.2105
@<TRIPOS>UNITY_ATOM_ATTR
2 1
charge -1
26 1
charge -1
@<TRIPOS>BOND
     1    25    28    1
     2    25    24    1
     3    25    26    1
     4    25    27    2
     5     1     4    1
     6     1    24    1
     7     1     2    1
     8     1     3    2
     9     6    11    1
    10     6    12    1
    11    29    36    1
    12    29    37    1
    13     7     9    1
    14     7    13    1
    15     8    10    1
    16     8    14    1
    17    28    37    1
    18     4     5    1
    19    30    33    1
    20    30    38    1
    21    31    34    1
    22    31    39    1
    23    32    35    1
    24    32    40    1
    25    41    42    1
    26    41    43    1
    27    15    19    2
    28    16    22    2
    29    17    12    1
    30    17    19   ar
    31    17    20   ar
    32    18    19   ar
    33    18    22   ar
    34    18    23    1
    35     9    10    1
    36     9    11    1
    37    10    12    1
    38    11     5    1
    39    33    34    1
    40    33    35    1
    41    34    36    1
    42    35    37    1
    43    36    42    1
    44    20    21   ar
    45    21    22   ar
@<TRIPOS>MOLECULE
*****
 43 45 0 0 0
SMALL
GASTEIGER

@<TRIPOS>ATOM
      1 P          22.9890   72.1316   -2.9884 P.3     1  UNL1        0.2189
      2 O          23.5581   70.6430   -3.2670 O.co2   1  UNL1       -0.4371
      3 O          22.9590   72.5387   -1.5445 O.2     1  UNL1       -0.5170
      4 O          21.5638   72.1522   -3.7540 O.3     1  UNL1       -0.3112
      5 C          20.7342   71.0065   -3.6693 C.3     1  UNL1        0.1811
      6 O          18.8349   71.9960   -4.7591 O.3     1  UNL1       -0.3308
      7 O          17.1943   70.8570   -2.5226 O.3     1  UNL1       -0.3794
      8 O          16.7488   69.0862   -4.5481 O.3     1  UNL1       -0.3779
      9 C          18.3390   70.3070   -3.1725 C.3     1  UNL1        0.1713
     10 C          17.9684   69.8000   -4.5506 C.3     1  UNL1        0.1895
     11 C          19.2884   71.4528   -3.4998 C.3     1  UNL1        0.1764
     12 C          17.8895   71.0895   -5.3500 C.3     1  UNL1        0.2383
     13 H          16.5734   70.1439   -2.3034 H       1  UNL1        0.2105
     14 H          16.8501   68.2746   -4.0269 H       1  UNL1        0.2106
     15 O          16.0235   70.4751   -7.3795 O.2     1  UNL1       -0.2464
     16 O          19.3016   70.3776  -10.6177 O.2     1  UNL1       -0.2670
     17 N          18.2278   70.8986   -6.7322 N.ar    1  UNL1       -0.2551
     18 N          17.6573   70.4273   -8.9903 N.ar    1  UNL1       -0.2743
     19 C          17.2155   70.5922   -7.6713 C.ar    1  UNL1        0.3323
     20 C          19.5508   71.0158   -7.1444 C.ar    1  UNL1        0.0869
     21 C          19.9558   70.8542   -8.4058 C.ar    1  UNL1        0.0795
     22 C          18.9608   70.5323   -9.4491 C.ar    1  UNL1        0.2626
     23 H          16.9696   70.2129   -9.6618 H       1  UNL1        0.1734
     24 O          23.9205   73.0588   -3.9295 O.3     1  UNL1       -0.2703
     25 P          24.0612   74.6660   -4.0301 P.3     1  UNL1        0.2208
     26 O          25.6609   74.9023   -3.9774 O.co2   1  UNL1       -0.4371
     27 O          23.2894   75.4179   -2.9847 O.2     1  UNL1       -0.5170
     28 O          23.6470   75.0180   -5.5497 O.3     1  UNL1       -0.2858
     29 O          21.7467   76.1616   -6.3852 O.3     1  UNL1       -0.3258
     30 O          22.2030   73.3608   -9.3849 O.3     1  UNL1       -0.3794
     31 O          22.8742   76.1063   -9.8944 O.3     1  UNL1       -0.3794
     32 O          22.6789   72.6151   -6.6286 O.3     1  UNL1       -0.3775
     33 C          22.6447   74.2728   -8.3757 C.3     1  UNL1        0.1715
     34 C          22.1513   75.6730   -8.7455 C.3     1  UNL1        0.1694
     35 C          22.0728   73.8401   -7.0270 C.3     1  UNL1        0.1967
     36 C          22.3536   76.6562   -7.5847 C.3     1  UNL1        0.1761
     37 C          22.2846   74.9099   -5.9542 C.3     1  UNL1        0.2704
     38 H          22.5630   73.6296  -10.2437 H       1  UNL1        0.2105
     39 H          22.7384   75.4766  -10.6199 H       1  UNL1        0.2105
     40 H          22.5375   71.9461   -7.3159 H       1  UNL1        0.2106
     41 O          22.3628   78.9873   -7.0605 O.3     1  UNL1       -0.3794
     42 C          21.7263   78.0184   -7.8730 C.3     1  UNL1        0.1693
     43 H          21.9740   79.8594   -7.2335 H       1  UNL1        0.2105
@<TRIPOS>UNITY_ATOM_ATTR
2 1
charge -1
26 1
charge -1
@<TRIPOS>BOND
     1    25    28    1
     2    25    24    1
     3    25    26    1
     4    25    27    2
     5     1     4    1
     6     1    24    1
     7     1     2    1
     8     1     3    2
     9     6    11    1
    10     6    12    1
    11    29    36    1
    12    29    37    1
    13     7     9    1
    14     7    13    1
    15     8    10    1
    16     8    14    1
    17    28    37    1
    18     4     5    1
    19    30    33    1
    20    30    38    1
    21    31    34    1
    22    31    39    1
    23    32    35    1
    24    32    40    1
    25    41    42    1
    26    41    43    1
    27    15    19    2
    28    16    22    2
    29    17    12    1
    30    17    19   ar
    31    17    20   ar
    32    18    19   ar
    33    18    22   ar
    34    18    23    1
    35     9    10    1
    36     9    11    1
    37    10    12    1
    38    11     5    1
    39    33    34    1
    40    33    35    1
    41    34    36    1
    42    35    37    1
    43    36    42    1
    44    20    21   ar
    45    21    22   ar
@<TRIPOS>MOLECULE
*****
 43 45 0 0 0
SMALL
GASTEIGER

@<TRIPOS>ATOM
      1 P          21.8579   73.9997   -5.6682 P.3     1  UNL1        0.2189
      2 O          20.5748   74.7445   -5.0230 O.co2   1  UNL1       -0.4371
      3 O          23.0908   74.8472   -5.7837 O.2     1  UNL1       -0.5170
      4 O          21.2942   73.3866   -7.0554 O.3     1  UNL1       -0.3112
      5 C          20.2343   74.0606   -7.7112 C.3     1  UNL1        0.1811
      6 O          19.6432   71.8010   -8.2754 O.3     1  UNL1       -0.3308
      7 O          17.9655   72.9839  -10.4610 O.3     1  UNL1       -0.3794
      8 O          16.1188   72.4110   -8.5380 O.3     1  UNL1       -0.3779
      9 C          18.2159   73.4799   -9.1470 C.3     1  UNL1        0.1713
     10 C          17.4444   72.6722   -8.1243 C.3     1  UNL1        0.1895
     11 C          19.6597   73.1511   -8.7886 C.3     1  UNL1        0.1764
     12 C          18.2840   71.4103   -8.0209 C.3     1  UNL1        0.2383
     13 H          17.0493   73.1824  -10.7123 H       1  UNL1        0.2105
     14 H          15.6254   73.2446   -8.5885 H       1  UNL1        0.2106
     15 O          16.0465   69.9851   -7.0513 O.2     1  UNL1       -0.2464
     16 O          18.1039   69.1396   -3.0148 O.2     1  UNL1       -0.2670
     17 N          18.2080   70.8068   -6.7204 N.ar    1  UNL1       -0.2551
     18 N          17.0728   69.5651   -5.0423 N.ar    1  UNL1       -0.2743
     19 C          17.0381   70.1141   -6.3305 C.ar    1  UNL1        0.3323
     20 C          19.2857   70.9048   -5.8469 C.ar    1  UNL1        0.0869
     21 C          19.3024   70.3767   -4.6213 C.ar    1  UNL1        0.0795
     22 C          18.1194   69.6367   -4.1367 C.ar    1  UNL1        0.2626
     23 H          16.2687   69.0783   -4.7489 H       1  UNL1        0.1734
     24 O          22.0262   72.6911   -4.7344 O.3     1  UNL1       -0.2703
     25 P          23.0372   72.3825   -3.5115 P.3     1  UNL1        0.2208
     26 O          24.2669   73.3988   -3.7812 O.co2   1  UNL1       -0.4371
     27 O          23.4396   70.9408   -3.3945 O.2     1  UNL1       -0.5170
     28 O          22.2950   72.9777   -2.2077 O.3     1  UNL1       -0.2858
     29 O          21.5742   71.2307   -0.7776 O.3     1  UNL1       -0.3258
     30 O          19.7336   74.4178    1.0946 O.3     1  UNL1       -0.3794
     31 O          22.0114   73.1739    2.3243 O.3     1  UNL1       -0.3794
     32 O          19.8660   74.3212   -1.7955 O.3     1  UNL1       -0.3775
     33 C          20.7712   73.7579    0.3643 C.3     1  UNL1        0.1715
     34 C          21.3059   72.6097    1.2224 C.3     1  UNL1        0.1694
     35 C          20.1976   73.2266   -0.9480 C.3     1  UNL1        0.1967
     36 C          22.2300   71.6938    0.4086 C.3     1  UNL1        0.1761
     37 C          21.1777   72.2877   -1.6536 C.3     1  UNL1        0.2704
     38 H          20.0913   74.7580    1.9288 H       1  UNL1        0.2105
     39 H          21.4168   73.7503    2.8295 H       1  UNL1        0.2105
     40 H          19.2448   74.9080   -1.3375 H       1  UNL1        0.2106
     41 O          22.6798   69.3490    0.3170 O.3     1  UNL1       -0.3794
     42 C          22.6490   70.4560    1.1989 C.3     1  UNL1        0.1693
     43 H          22.9452   68.5540    0.8061 H       1  UNL1        0.2105
@<TRIPOS>UNITY_ATOM_ATTR
2 1
charge -1
26 1
charge -1
@<TRIPOS>BOND
     1    25    28    1
     2    25    24    1
     3    25    26    1
     4    25    27    2
     5     1     4    1
     6     1    24    1
     7     1     2    1
     8     1     3    2
     9     6    11    1
    10     6    12    1
    11    29    36    1
    12    29    37    1
    13     7     9    1
    14     7    13    1
    15     8    10    1
    16     8    14    1
    17    28    37    1
    18     4     5    1
    19    30    33    1
    20    30    38    1
    21    31    34    1
    22    31    39    1
    23    32    35    1
    24    32    40    1
    25    41    42    1
    26    41    43    1
    27    15    19    2
    28    16    22    2
    29    17    12    1
    30    17    19   ar
    31    17    20   ar
    32    18    19   ar
    33    18    22   ar
    34    18    23    1
    35     9    10    1
    36     9    11    1
    37    10    12    1
    38    11     5    1
    39    33    34    1
    40    33    35    1
    41    34    36    1
    42    35    37    1
    43    36    42    1
    44    20    21   ar
    45    21    22   ar
@<TRIPOS>MOLECULE
*****
 43 45 0 0 0
SMALL
GASTEIGER

@<TRIPOS>ATOM
      1 P          22.5869   72.7373   -4.1095 P.3     1  UNL1        0.2189
      2 O          23.0722   73.2807   -5.5540 O.co2   1  UNL1       -0.4371
      3 O          23.4623   71.6802   -3.5032 O.2     1  UNL1       -0.5170
      4 O          21.0430   72.3177   -4.3510 O.3     1  UNL1       -0.3112
      5 C          20.4546   71.3717   -3.4754 C.3     1  UNL1        0.1811
      6 O          18.5045   72.1575   -4.6387 O.3     1  UNL1       -0.3308
      7 O          16.9089   70.8412   -2.4679 O.3     1  UNL1       -0.3794
      8 O          16.7339   69.0412   -4.5090 O.3     1  UNL1       -0.3779
      9 C          18.1302   70.4189   -3.0725 C.3     1  UNL1        0.1713
     10 C          17.8696   69.8809   -4.4639 C.3     1  UNL1        0.1895
     11 C          18.9640   71.6607   -3.3626 C.3     1  UNL1        0.1764
     12 C          17.6848   71.1578   -5.2660 C.3     1  UNL1        0.2383
     13 H          16.3596   70.0651   -2.2730 H       1  UNL1        0.2105
     14 H          16.9009   68.2429   -3.9841 H       1  UNL1        0.2106
     15 O          15.9919   70.2924   -7.3549 O.2     1  UNL1       -0.2464
     16 O          19.3676   70.6250  -10.4750 O.2     1  UNL1       -0.2670
     17 N          18.0950   71.0096   -6.6339 N.ar    1  UNL1       -0.2551
     18 N          17.6741   70.4589   -8.9068 N.ar    1  UNL1       -0.2743
     19 C          17.1672   70.5673   -7.6055 C.ar    1  UNL1        0.3323
     20 C          19.4043   71.3018   -7.0002 C.ar    1  UNL1        0.0869
     21 C          19.8723   71.1920   -8.2453 C.ar    1  UNL1        0.0795
     22 C          18.9674   70.7363   -9.3203 C.ar    1  UNL1        0.2626
     23 H          17.0459   70.1522   -9.6004 H       1  UNL1        0.1734
     24 O          22.4629   74.0911   -3.2349 O.3     1  UNL1       -0.2703
     25 P          23.4456   74.7293   -2.1213 P.3     1  UNL1        0.2208
     26 O          22.8524   76.2200   -1.9135 O.co2   1  UNL1       -0.4371
     27 O          24.9008   74.6874   -2.4883 O.2     1  UNL1       -0.5170
     28 O          23.0772   73.9501   -0.7567 O.3     1  UNL1       -0.2858
     29 O          21.7328   72.0186   -0.4766 O.3     1  UNL1       -0.3258
     30 O          20.8140   73.9777    3.0403 O.3     1  UNL1       -0.3794
     31 O          22.4825   71.6413    3.1129 O.3     1  UNL1       -0.3794
     32 O          21.1562   75.4866    0.5937 O.3     1  UNL1       -0.3775
     33 C          21.6554   73.5664    1.9594 C.3     1  UNL1        0.1715
     34 C          21.7339   72.0385    1.9674 C.3     1  UNL1        0.1694
     35 C          21.0599   74.0673    0.6448 C.3     1  UNL1        0.1967
     36 C          22.3959   71.5111    0.6872 C.3     1  UNL1        0.1761
     37 C          21.7585   73.4445   -0.5652 C.3     1  UNL1        0.2704
     38 H          21.1867   73.6633    3.8779 H       1  UNL1        0.2105
     39 H          22.0542   71.9811    3.9143 H       1  UNL1        0.2105
     40 H          20.7099   75.8689    1.3648 H       1  UNL1        0.2106
     41 O          21.7476   69.6266   -0.6308 O.3     1  UNL1       -0.3794
     42 C          22.3430   69.9873    0.6020 C.3     1  UNL1        0.1693
     43 H          21.7076   68.6594   -0.6990 H       1  UNL1        0.2105
@<TRIPOS>UNITY_ATOM_ATTR
2 1
charge -1
26 1
charge -1
@<TRIPOS>BOND
     1    25    28    1
     2    25    24    1
     3    25    26    1
     4    25    27    2
     5     1     4    1
     6     1    24    1
     7     1     2    1
     8     1     3    2
     9     6    11    1
    10     6    12    1
    11    29    36    1
    12    29    37    1
    13     7     9    1
    14     7    13    1
    15     8    10    1
    16     8    14    1
    17    28    37    1
    18     4     5    1
    19    30    33    1
    20    30    38    1
    21    31    34    1
    22    31    39    1
    23    32    35    1
    24    32    40    1
    25    41    42    1
    26    41    43    1
    27    15    19    2
    28    16    22    2
    29    17    12    1
    30    17    19   ar
    31    17    20   ar
    32    18    19   ar
    33    18    22   ar
    34    18    23    1
    35     9    10    1
    36     9    11    1
    37    10    12    1
    38    11     5    1
    39    33    34    1
    40    33    35    1
    41    34    36    1
    42    35    37    1
    43    36    42    1
    44    20    21   ar
    45    21    22   ar
@<TRIPOS>MOLECULE
*****
 43 45 0 0 0
SMALL
GASTEIGER

@<TRIPOS>ATOM
      1 P          22.9481   72.0270   -2.9645 P.3     1  UNL1        0.2189
      2 O          23.4935   70.5155   -3.1524 O.co2   1  UNL1       -0.4371
      3 O          22.9208   72.5194   -1.5474 O.2     1  UNL1       -0.5170
      4 O          21.5254   72.0252   -3.7352 O.3     1  UNL1       -0.3112
      5 C          20.6692   70.9081   -3.5714 C.3     1  UNL1        0.1811
      6 O          18.8258   71.9659   -4.6924 O.3     1  UNL1       -0.3308
      7 O          17.1030   70.8641   -2.4995 O.3     1  UNL1       -0.3794
      8 O          16.6437   69.1233   -4.5478 O.3     1  UNL1       -0.3779
      9 C          18.2429   70.2823   -3.1299 C.3     1  UNL1        0.1713
     10 C          17.8853   69.7975   -4.5193 C.3     1  UNL1        0.1895
     11 C          19.2352   71.3994   -3.4284 C.3     1  UNL1        0.1764
     12 C          17.8644   71.0946   -5.3100 C.3     1  UNL1        0.2383
     13 H          16.4552   70.1698   -2.2989 H       1  UNL1        0.2105
     14 H          16.7081   68.3050   -4.0310 H       1  UNL1        0.2106
     15 O          16.0383   70.4370   -7.3620 O.2     1  UNL1       -0.2464
     16 O          19.3625   70.3820  -10.5538 O.2     1  UNL1       -0.2670
     17 N          18.2254   70.9029   -6.6863 N.ar    1  UNL1       -0.2551
     18 N          17.6950   70.4103   -8.9496 N.ar    1  UNL1       -0.2743
     19 C          17.2320   70.5739   -7.6378 C.ar    1  UNL1        0.3323
     20 C          19.5517   71.0417   -7.0807 C.ar    1  UNL1        0.0869
     21 C          19.9771   70.8811   -8.3355 C.ar    1  UNL1        0.0795
     22 C          19.0027   70.5363   -9.3908 C.ar    1  UNL1        0.2626
     23 H          17.0207   70.1804   -9.6295 H       1  UNL1        0.1734
     24 O          23.8970   72.8817   -3.9554 O.3     1  UNL1       -0.2703
     25 P          24.3154   74.4430   -3.9398 P.3     1  UNL1        0.2208
     26 O          23.9034   74.9226   -2.4506 O.co2   1  UNL1       -0.4371
     27 O          23.7027   75.2553   -5.0438 O.2     1  UNL1       -0.5170
     28 O          25.9294   74.4333   -3.9330 O.3     1  UNL1       -0.2858
     29 O          26.8214   76.1452   -2.5581 O.3     1  UNL1       -0.3258
     30 O          30.2955   74.9197   -4.4234 O.3     1  UNL1       -0.3794
     31 O          29.8622   74.2644   -1.6610 O.3     1  UNL1       -0.3794
     32 O          27.8190   75.0386   -5.9175 O.3     1  UNL1       -0.3775
     33 C          29.0012   74.7510   -3.8388 C.3     1  UNL1        0.1715
     34 C          29.0709   75.2064   -2.3799 C.3     1  UNL1        0.1694
     35 C          27.9890   75.5903   -4.6163 C.3     1  UNL1        0.1967
     36 C          27.6691   75.3075   -1.7635 C.3     1  UNL1        0.1761
     37 C          26.6435   75.6661   -3.8925 C.3     1  UNL1        0.2704
     38 H          30.9428   74.3890   -3.9347 H       1  UNL1        0.2105
     39 H          30.7446   74.2097   -2.0606 H       1  UNL1        0.2105
     40 H          28.6777   74.9962   -6.3654 H       1  UNL1        0.2106
     41 O          29.0506   75.9699    0.0700 O.3     1  UNL1       -0.3794
     42 C          27.7033   75.9099   -0.3607 C.3     1  UNL1        0.1693
     43 H          29.0878   76.3516    0.9614 H       1  UNL1        0.2105
@<TRIPOS>UNITY_ATOM_ATTR
2 1
charge -1
26 1
charge -1
@<TRIPOS>BOND
     1    25    28    1
     2    25    24    1
     3    25    26    1
     4    25    27    2
     5     1     4    1
     6     1    24    1
     7     1     2    1
     8     1     3    2
     9     6    11    1
    10     6    12    1
    11    29    36    1
    12    29    37    1
    13     7     9    1
    14     7    13    1
    15     8    10    1
    16     8    14    1
    17    28    37    1
    18     4     5    1
    19    30    33    1
    20    30    38    1
    21    31    34    1
    22    31    39    1
    23    32    35    1
    24    32    40    1
    25    41    42    1
    26    41    43    1
    27    15    19    2
    28    16    22    2
    29    17    12    1
    30    17    19   ar
    31    17    20   ar
    32    18    19   ar
    33    18    22   ar
    34    18    23    1
    35     9    10    1
    36     9    11    1
    37    10    12    1
    38    11     5    1
    39    33    34    1
    40    33    35    1
    41    34    36    1
    42    35    37    1
    43    36    42    1
    44    20    21   ar
    45    21    22   ar
@<TRIPOS>MOLECULE
*****
 43 45 0 0 0
SMALL
GASTEIGER

@<TRIPOS>ATOM
      1 P          22.3089   73.3145   -5.3486 P.3     1  UNL1        0.2189
      2 O          22.6284   74.8258   -5.8293 O.co2   1  UNL1       -0.4371
      3 O          23.4668   72.5881   -4.7297 O.2     1  UNL1       -0.5170
      4 O          21.6620   72.6188   -6.6584 O.3     1  UNL1       -0.3112
      5 C          20.8367   73.4027   -7.5023 C.3     1  UNL1        0.1811
      6 O          19.9784   71.1969   -7.9164 O.3     1  UNL1       -0.3308
      7 O          18.4837   72.4129  -10.2138 O.3     1  UNL1       -0.3794
      8 O          16.5590   72.2113   -8.2925 O.3     1  UNL1       -0.3779
      9 C          18.7784   72.9692   -8.9336 C.3     1  UNL1        0.1713
     10 C          17.9020   72.3384   -7.8717 C.3     1  UNL1        0.1895
     11 C          20.1667   72.4939   -8.5237 C.3     1  UNL1        0.1764
     12 C          18.5787   70.9945   -7.6622 C.3     1  UNL1        0.2383
     13 H          17.6018   72.7028  -10.4969 H       1  UNL1        0.2105
     14 H          16.1726   73.0929   -8.4119 H       1  UNL1        0.2106
     15 O          16.2273   69.7672   -6.6912 O.2     1  UNL1       -0.2464
     16 O          18.0613   69.1423   -2.5094 O.2     1  UNL1       -0.2670
     17 N          18.4144   70.5013   -6.3238 N.ar    1  UNL1       -0.2551
     18 N          17.1425   69.4569   -4.6098 N.ar    1  UNL1       -0.2743
     19 C          17.1928   69.9025   -5.9368 C.ar    1  UNL1        0.3323
     20 C          19.4575   70.6134   -5.4111 C.ar    1  UNL1        0.0869
     21 C          19.3930   70.1845   -4.1489 C.ar    1  UNL1        0.0795
     22 C          18.1518   69.5469   -3.6644 C.ar    1  UNL1        0.2626
     23 H          16.3011   69.0367   -4.3176 H       1  UNL1        0.1734
     24 O          21.0349   73.5054   -4.3721 O.3     1  UNL1       -0.2703
     25 P          20.9301   74.0755   -2.8631 P.3     1  UNL1        0.2208
     26 O          19.3655   74.4615   -2.7202 O.co2   1  UNL1       -0.4371
     27 O          21.8758   75.2025   -2.5640 O.2     1  UNL1       -0.5170
     28 O          21.1173   72.7776   -1.9221 O.3     1  UNL1       -0.2858
     29 O          22.8862   73.2573   -0.4196 O.3     1  UNL1       -0.3258
     30 O          22.0887   69.3693    0.7198 O.3     1  UNL1       -0.3794
     31 O          21.3301   71.5364    2.4450 O.3     1  UNL1       -0.3794
     32 O          21.9685   70.1080   -2.0765 O.3     1  UNL1       -0.3775
     33 C          21.7668   70.6825    0.2539 C.3     1  UNL1        0.1715
     34 C          22.1953   71.6893    1.3233 C.3     1  UNL1        0.1694
     35 C          22.5071   70.9426   -1.0568 C.3     1  UNL1        0.1967
     36 C          22.1291   73.1265    0.7894 C.3     1  UNL1        0.1761
     37 C          22.4196   72.4120   -1.4730 C.3     1  UNL1        0.2704
     38 H          21.6214   69.1977    1.5515 H       1  UNL1        0.2105
     39 H          21.3809   70.6245    2.7722 H       1  UNL1        0.2105
     40 H          22.0300   69.1805   -1.8011 H       1  UNL1        0.2106
     41 O          23.8207   74.7652    1.1921 O.3     1  UNL1       -0.3794
     42 C          22.7011   74.1334    1.7850 C.3     1  UNL1        0.1693
     43 H          24.1949   75.4090    1.8143 H       1  UNL1        0.2105
@<TRIPOS>UNITY_ATOM_ATTR
2 1
charge -1
26 1
charge -1
@<TRIPOS>BOND
     1    25    28    1
     2    25    24    1
     3    25    26    1
     4    25    27    2
     5     1     4    1
     6     1    24    1
     7     1     2    1
     8     1     3    2
     9     6    11    1
    10     6    12    1
    11    29    36    1
    12    29    37    1
    13     7     9    1
    14     7    13    1
    15     8    10    1
    16     8    14    1
    17    28    37    1
    18     4     5    1
    19    30    33    1
    20    30    38    1
    21    31    34    1
    22    31    39    1
    23    32    35    1
    24    32    40    1
    25    41    42    1
    26    41    43    1
    27    15    19    2
    28    16    22    2
    29    17    12    1
    30    17    19   ar
    31    17    20   ar
    32    18    19   ar
    33    18    22   ar
    34    18    23    1
    35     9    10    1
    36     9    11    1
    37    10    12    1
    38    11     5    1
    39    33    34    1
    40    33    35    1
    41    34    36    1
    42    35    37    1
    43    36    42    1
    44    20    21   ar
    45    21    22   ar
@<TRIPOS>MOLECULE
*****
 43 45 0 0 0
SMALL
GASTEIGER

@<TRIPOS>ATOM
      1 P          23.1442   72.8747   -3.5501 P.3     1  UNL1        0.2189
      2 O          23.3226   71.2753   -3.3846 O.co2   1  UNL1       -0.4371
      3 O          24.3441   73.5934   -4.0935 O.2     1  UNL1       -0.5170
      4 O          22.6335   73.3613   -2.0940 O.3     1  UNL1       -0.3112
      5 C          22.4306   72.3847   -1.0876 C.3     1  UNL1        0.1811
      6 O          21.1006   72.3945    0.9137 O.3     1  UNL1       -0.3308
      7 O          19.0056   73.7973   -0.7093 O.3     1  UNL1       -0.3794
      8 O          20.1444   75.8438    0.6877 O.3     1  UNL1       -0.3779
      9 C          20.4258   73.9188   -0.7706 C.3     1  UNL1        0.1713
     10 C          20.9379   74.7062    0.4174 C.3     1  UNL1        0.1895
     11 C          21.0258   72.5407   -0.5214 C.3     1  UNL1        0.1764
     12 C          20.8772   73.6733    1.5298 C.3     1  UNL1        0.2383
     13 H          18.6000   74.6650   -0.8658 H       1  UNL1        0.2105
     14 H          20.2165   76.4708   -0.0488 H       1  UNL1        0.2106
     15 O          20.4365   73.4223    4.3085 O.2     1  UNL1       -0.2464
     16 O          24.8027   74.5274    5.2862 O.2     1  UNL1       -0.2670
     17 N          21.8812   73.8893    2.5331 N.ar    1  UNL1       -0.2551
     18 N          22.6109   73.9726    4.7930 N.ar    1  UNL1       -0.2743
     19 C          21.5563   73.7383    3.9014 C.ar    1  UNL1        0.3323
     20 C          23.1715   74.2463    2.1568 C.ar    1  UNL1        0.0869
     21 C          24.1655   74.4674    3.0195 C.ar    1  UNL1        0.0795
     22 C          23.9097   74.3307    4.4679 C.ar    1  UNL1        0.2626
     23 H          22.4079   73.8736    5.7515 H       1  UNL1        0.1734
     24 O          21.8152   72.9998   -4.4618 O.3     1  UNL1       -0.2703
     25 P          21.6153   73.5097   -5.9826 P.3     1  UNL1        0.2208
     26 O          22.7994   72.7546   -6.7858 O.co2   1  UNL1       -0.4371
     27 O          21.6174   75.0032   -6.1362 O.2     1  UNL1       -0.5170
     28 O          20.2602   72.7880   -6.4806 O.3     1  UNL1       -0.2858
     29 O          19.3006   70.6492   -6.1323 O.3     1  UNL1       -0.3258
     30 O          18.5952   71.0373  -10.1823 O.3     1  UNL1       -0.3794
     31 O          16.4064   71.2495   -8.3351 O.3     1  UNL1       -0.3794
     32 O          21.0763   72.0068   -9.0494 O.3     1  UNL1       -0.3775
     33 C          18.7328   71.4941   -8.8341 C.3     1  UNL1        0.1715
     34 C          17.6976   70.7673   -7.9734 C.3     1  UNL1        0.1694
     35 C          20.1476   71.1891   -8.3457 C.3     1  UNL1        0.1967
     36 C          17.9564   71.0020   -6.4791 C.3     1  UNL1        0.1761
     37 C          20.2843   71.4085   -6.8379 C.3     1  UNL1        0.2704
     38 H          17.6991   71.2284  -10.4987 H       1  UNL1        0.2105
     39 H          16.2558   71.0957   -9.2810 H       1  UNL1        0.2105
     40 H          20.9801   71.8584  -10.0026 H       1  UNL1        0.2106
     41 O          16.2921   69.2883   -6.4322 O.3     1  UNL1       -0.3794
     42 C          17.0335   70.1610   -5.5998 C.3     1  UNL1        0.1693
     43 H          15.7006   68.7465   -5.8862 H       1  UNL1        0.2105
@<TRIPOS>UNITY_ATOM_ATTR
2 1
charge -1
26 1
charge -1
@<TRIPOS>BOND
     1    25    28    1
     2    25    24    1
     3    25    26    1
     4    25    27    2
     5     1     4    1
     6     1    24    1
     7     1     2    1
     8     1     3    2
     9     6    11    1
    10     6    12    1
    11    29    36    1
    12    29    37    1
    13     7     9    1
    14     7    13    1
    15     8    10    1
    16     8    14    1
    17    28    37    1
    18     4     5    1
    19    30    33    1
    20    30    38    1
    21    31    34    1
    22    31    39    1
    23    32    35    1
    24    32    40    1
    25    41    42    1
    26    41    43    1
    27    15    19    2
    28    16    22    2
    29    17    12    1
    30    17    19   ar
    31    17    20   ar
    32    18    19   ar
    33    18    22   ar
    34    18    23    1
    35     9    10    1
    36     9    11    1
    37    10    12    1
    38    11     5    1
    39    33    34    1
    40    33    35    1
    41    34    36    1
    42    35    37    1
    43    36    42    1
    44    20    21   ar
    45    21    22   ar
@<TRIPOS>MOLECULE
*****
 43 45 0 0 0
SMALL
GASTEIGER

@<TRIPOS>ATOM
      1 P          22.0428   75.0982   -5.2521 P.3     1  UNL1        0.2189
      2 O          21.8509   76.6596   -4.8744 O.co2   1  UNL1       -0.4371
      3 O          23.1019   74.8198   -6.2778 O.2     1  UNL1       -0.5170
      4 O          20.5496   74.6041   -5.6319 O.3     1  UNL1       -0.3112
      5 C          19.5466   75.5827   -5.8421 C.3     1  UNL1        0.1811
      6 O          17.5523   74.3506   -6.3695 O.3     1  UNL1       -0.3308
      7 O          17.1825   74.0458   -3.4096 O.3     1  UNL1       -0.3794
      8 O          18.2151   71.6274   -4.1317 O.3     1  UNL1       -0.3779
      9 C          18.3882   74.0522   -4.1722 C.3     1  UNL1        0.1713
     10 C          18.5390   72.7487   -4.9283 C.3     1  UNL1        0.1895
     11 C          18.2223   75.0589   -5.3038 C.3     1  UNL1        0.1764
     12 C          17.5738   72.9421   -6.0855 C.3     1  UNL1        0.2383
     13 H          17.2646   73.4103   -2.6806 H       1  UNL1        0.2105
     14 H          18.8578   71.5471   -3.4097 H       1  UNL1        0.2106
     15 O          16.3092   70.6180   -7.0741 O.2     1  UNL1       -0.2464
     16 O          19.2370   70.3118  -10.6203 O.2     1  UNL1       -0.2670
     17 N          17.9845   72.2347   -7.2655 N.ar    1  UNL1       -0.2551
     18 N          17.7680   70.4675   -8.8391 N.ar    1  UNL1       -0.2743
     19 C          17.2822   71.0776   -7.6755 C.ar    1  UNL1        0.3323
     20 C          19.0723   72.6897   -8.0027 C.ar    1  UNL1        0.0869
     21 C          19.5237   72.0958   -9.1094 C.ar    1  UNL1        0.0795
     22 C          18.8459   70.8808   -9.6059 C.ar    1  UNL1        0.2626
     23 H          17.2946   69.6595   -9.1436 H       1  UNL1        0.1734
     24 O          22.3000   74.4055   -3.8144 O.3     1  UNL1       -0.2703
     25 P          23.3719   73.2877   -3.3512 P.3     1  UNL1        0.2208
     26 O          24.7895   74.0564   -3.4819 O.co2   1  UNL1       -0.4371
     27 O          23.2915   72.0016   -4.1214 O.2     1  UNL1       -0.5170
     28 O          23.1380   73.1313   -1.7619 O.3     1  UNL1       -0.2858
     29 O          20.9794   72.1539   -1.8004 O.3     1  UNL1       -0.3258
     30 O          21.8777   71.6122    2.1934 O.3     1  UNL1       -0.3794
     31 O          21.8721   69.3517    0.4220 O.3     1  UNL1       -0.3794
     32 O          22.6795   74.0481    0.8505 O.3     1  UNL1       -0.3775
     33 C          22.1607   71.6967    0.7940 C.3     1  UNL1        0.1715
     34 C          21.3391   70.6262    0.0731 C.3     1  UNL1        0.1694
     35 C          21.7866   73.0901    0.2923 C.3     1  UNL1        0.1967
     36 C          21.3825   70.8254   -1.4479 C.3     1  UNL1        0.1761
     37 C          21.8141   73.1667   -1.2353 C.3     1  UNL1        0.2704
     38 H          22.1135   70.7300    2.5183 H       1  UNL1        0.2105
     39 H          21.8393   69.2387    1.3850 H       1  UNL1        0.2105
     40 H          22.6527   73.9898    1.8178 H       1  UNL1        0.2106
     41 O          21.1921   69.1589   -3.1495 O.3     1  UNL1       -0.3794
     42 C          20.4444   69.8662   -2.1774 C.3     1  UNL1        0.1693
     43 H          20.6080   68.5443   -3.6216 H       1  UNL1        0.2105
@<TRIPOS>UNITY_ATOM_ATTR
2 1
charge -1
26 1
charge -1
@<TRIPOS>BOND
     1    25    28    1
     2    25    24    1
     3    25    26    1
     4    25    27    2
     5     1     4    1
     6     1    24    1
     7     1     2    1
     8     1     3    2
     9     6    11    1
    10     6    12    1
    11    29    36    1
    12    29    37    1
    13     7     9    1
    14     7    13    1
    15     8    10    1
    16     8    14    1
    17    28    37    1
    18     4     5    1
    19    30    33    1
    20    30    38    1
    21    31    34    1
    22    31    39    1
    23    32    35    1
    24    32    40    1
    25    41    42    1
    26    41    43    1
    27    15    19    2
    28    16    22    2
    29    17    12    1
    30    17    19   ar
    31    17    20   ar
    32    18    19   ar
    33    18    22   ar
    34    18    23    1
    35     9    10    1
    36     9    11    1
    37    10    12    1
    38    11     5    1
    39    33    34    1
    40    33    35    1
    41    34    36    1
    42    35    37    1
    43    36    42    1
    44    20    21   ar
    45    21    22   ar
@<TRIPOS>MOLECULE
*****
 43 45 0 0 0
SMALL
GASTEIGER

@<TRIPOS>ATOM
      1 P          22.3798   73.0215   -4.5258 P.3     1  UNL1        0.2189
      2 O          22.6700   73.5994   -6.0088 O.co2   1  UNL1       -0.4371
      3 O          23.5058   72.2364   -3.9200 O.2     1  UNL1       -0.5170
      4 O          20.9774   72.2304   -4.6848 O.3     1  UNL1       -0.3112
      5 C          20.4649   71.5309   -3.5641 C.3     1  UNL1        0.1811
      6 O          18.5044   72.3067   -4.7166 O.3     1  UNL1       -0.3308
      7 O          16.9276   70.9857   -2.5350 O.3     1  UNL1       -0.3794
      8 O          16.7485   69.1828   -4.5731 O.3     1  UNL1       -0.3779
      9 C          18.1472   70.5682   -3.1463 C.3     1  UNL1        0.1713
     10 C          17.8807   70.0275   -4.5357 C.3     1  UNL1        0.1895
     11 C          18.9737   71.8133   -3.4428 C.3     1  UNL1        0.1764
     12 C          17.6855   71.3027   -5.3380 C.3     1  UNL1        0.2383
     13 H          16.3829   70.2075   -2.3360 H       1  UNL1        0.2105
     14 H          16.9221   68.3857   -4.0483 H       1  UNL1        0.2106
     15 O          16.0832   72.0016   -7.5566 O.2     1  UNL1       -0.2464
     16 O          19.3336   70.6901  -10.5493 O.2     1  UNL1       -0.2670
     17 N          18.0882   71.1548   -6.7082 N.ar    1  UNL1       -0.2551
     18 N          17.7030   71.3482   -9.0450 N.ar    1  UNL1       -0.2743
     19 C          17.2081   71.5350   -7.7480 C.ar    1  UNL1        0.3323
     20 C          19.3436   70.6380   -7.0095 C.ar    1  UNL1        0.0869
     21 C          19.8001   70.4649   -8.2516 C.ar    1  UNL1        0.0795
     22 C          18.9427   70.8372   -9.3955 C.ar    1  UNL1        0.2626
     23 H          17.1071   71.6057   -9.7854 H       1  UNL1        0.1734
     24 O          21.9591   74.3437   -3.6964 O.3     1  UNL1       -0.2703
     25 P          22.3203   74.8130   -2.1923 P.3     1  UNL1        0.2208
     26 O          21.1177   75.8300   -1.8221 O.co2   1  UNL1       -0.4371
     27 O          23.6946   75.3988   -2.0438 O.2     1  UNL1       -0.5170
     28 O          22.0469   73.5093   -1.2809 O.3     1  UNL1       -0.2858
     29 O          23.2754   73.6079    0.7433 O.3     1  UNL1       -0.3258
     30 O          21.8778   69.7314    1.0079 O.3     1  UNL1       -0.3794
     31 O          20.7685   71.7581    2.7137 O.3     1  UNL1       -0.3794
     32 O          22.7074   70.7956   -1.5532 O.3     1  UNL1       -0.3775
     33 C          21.8168   71.1176    0.6614 C.3     1  UNL1        0.1715
     34 C          21.9544   71.9391    1.9448 C.3     1  UNL1        0.1694
     35 C          22.9524   71.4403   -0.3079 C.3     1  UNL1        0.1967
     36 C          22.1657   73.4263    1.6306 C.3     1  UNL1        0.1761
     37 C          23.1084   72.9482   -0.5132 C.3     1  UNL1        0.2704
     38 H          21.1591   69.5198    1.6228 H       1  UNL1        0.2105
     39 H          20.6465   70.8148    2.9049 H       1  UNL1        0.2105
     40 H          22.6109   69.8416   -1.4097 H       1  UNL1        0.2106
     41 O          21.2329   74.6018    3.4898 O.3     1  UNL1       -0.3794
     42 C          22.4624   74.2401    2.8883 C.3     1  UNL1        0.1693
     43 H          21.4062   75.1200    4.2918 H       1  UNL1        0.2105
@<TRIPOS>UNITY_ATOM_ATTR
2 1
charge -1
26 1
charge -1
@<TRIPOS>BOND
     1    25    28    1
     2    25    24    1
     3    25    26    1
     4    25    27    2
     5     1     4    1
     6     1    24    1
     7     1     2    1
     8     1     3    2
     9     6    11    1
    10     6    12    1
    11    29    36    1
    12    29    37    1
    13     7     9    1
    14     7    13    1
    15     8    10    1
    16     8    14    1
    17    28    37    1
    18     4     5    1
    19    30    33    1
    20    30    38    1
    21    31    34    1
    22    31    39    1
    23    32    35    1
    24    32    40    1
    25    41    42    1
    26    41    43    1
    27    15    19    2
    28    16    22    2
    29    17    12    1
    30    17    19   ar
    31    17    20   ar
    32    18    19   ar
    33    18    22   ar
    34    18    23    1
    35     9    10    1
    36     9    11    1
    37    10    12    1
    38    11     5    1
    39    33    34    1
    40    33    35    1
    41    34    36    1
    42    35    37    1
    43    36    42    1
    44    20    21   ar
    45    21    22   ar
@<TRIPOS>MOLECULE
*****
 43 45 0 0 0
SMALL
GASTEIGER

@<TRIPOS>ATOM
      1 P          19.9085   69.9688   -2.6377 P.3     1  UNL1        0.2189
      2 O          21.3329   69.3263   -3.0566 O.co2   1  UNL1       -0.4371
      3 O          18.8380   68.9724   -2.3020 O.2     1  UNL1       -0.5170
      4 O          19.5682   70.9836   -3.8511 O.3     1  UNL1       -0.3112
      5 C          18.4245   71.8125   -3.7387 C.3     1  UNL1        0.1811
      6 O          19.5930   73.1997   -5.3148 O.3     1  UNL1       -0.3308
      7 O          18.0009   75.4834   -4.2010 O.3     1  UNL1       -0.3794
      8 O          16.6767   74.9082   -6.5145 O.3     1  UNL1       -0.3779
      9 C          17.6093   74.1275   -4.4093 C.3     1  UNL1        0.1713
     10 C          17.3905   73.8640   -5.8845 C.3     1  UNL1        0.1895
     11 C          18.8092   73.2401   -4.1022 C.3     1  UNL1        0.1764
     12 C          18.8153   73.7377   -6.3967 C.3     1  UNL1        0.2383
     13 H          17.2507   76.0692   -4.3906 H       1  UNL1        0.2105
     14 H          15.7769   74.9479   -6.1548 H       1  UNL1        0.2106
     15 O          18.2208   74.4792   -9.0565 O.2     1  UNL1       -0.2464
     16 O          19.2331   70.2742  -10.6487 O.2     1  UNL1       -0.2670
     17 N          18.9152   72.8567   -7.5260 N.ar    1  UNL1       -0.2551
     18 N          18.7255   72.3849   -9.8472 N.ar    1  UNL1       -0.2743
     19 C          18.5924   73.3278   -8.8200 C.ar    1  UNL1        0.3323
     20 C          19.3297   71.5418   -7.3445 C.ar    1  UNL1        0.0869
     21 C          19.4502   70.6547   -8.3344 C.ar    1  UNL1        0.0795
     22 C          19.1324   71.0665   -9.7170 C.ar    1  UNL1        0.2626
     23 H          18.5057   72.6905  -10.7571 H       1  UNL1        0.1734
     24 O          20.3015   70.9671   -1.4286 O.3     1  UNL1       -0.2703
     25 P          21.4844   70.8892   -0.3296 P.3     1  UNL1        0.2208
     26 O          22.7742   71.4450   -1.1328 O.co2   1  UNL1       -0.4371
     27 O          21.6718   69.5290    0.2774 O.2     1  UNL1       -0.5170
     28 O          21.1328   72.0528    0.7321 O.3     1  UNL1       -0.2858
     29 O          21.8690   74.2219    1.3401 O.3     1  UNL1       -0.3258
     30 O          22.0455   72.4033    5.0431 O.3     1  UNL1       -0.3794
     31 O          19.9723   74.3149    4.4996 O.3     1  UNL1       -0.3794
     32 O          22.8212   70.9324    2.6735 O.3     1  UNL1       -0.3775
     33 C          21.5158   72.6539    3.7385 C.3     1  UNL1        0.1715
     34 C          21.1087   74.1266    3.6609 C.3     1  UNL1        0.1694
     35 C          22.5859   72.3362    2.6957 C.3     1  UNL1        0.1967
     36 C          20.7819   74.5359    2.2184 C.3     1  UNL1        0.1761
     37 C          22.1827   72.8283    1.3045 C.3     1  UNL1        0.2704
     38 H          21.3708   72.6025    5.7098 H       1  UNL1        0.2105
     39 H          20.1918   74.0524    5.4074 H       1  UNL1        0.2105
     40 H          23.0759   70.6334    3.5598 H       1  UNL1        0.2106
     41 O          19.2537   76.2279    1.5041 O.3     1  UNL1       -0.3794
     42 C          20.5265   76.0363    2.0935 C.3     1  UNL1        0.1693
     43 H          19.0774   77.1784    1.4186 H       1  UNL1        0.2105
@<TRIPOS>UNITY_ATOM_ATTR
2 1
charge -1
26 1
charge -1
@<TRIPOS>BOND
     1    25    28    1
     2    25    24    1
     3    25    26    1
     4    25    27    2
     5     1     4    1
     6     1    24    1
     7     1     2    1
     8     1     3    2
     9     6    11    1
    10     6    12    1
    11    29    36    1
    12    29    37    1
    13     7     9    1
    14     7    13    1
    15     8    10    1
    16     8    14    1
    17    28    37    1
    18     4     5    1
    19    30    33    1
    20    30    38    1
    21    31    34    1
    22    31    39    1
    23    32    35    1
    24    32    40    1
    25    41    42    1
    26    41    43    1
    27    15    19    2
    28    16    22    2
    29    17    12    1
    30    17    19   ar
    31    17    20   ar
    32    18    19   ar
    33    18    22   ar
    34    18    23    1
    35     9    10    1
    36     9    11    1
    37    10    12    1
    38    11     5    1
    39    33    34    1
    40    33    35    1
    41    34    36    1
    42    35    37    1
    43    36    42    1
    44    20    21   ar
    45    21    22   ar
@<TRIPOS>MOLECULE
*****
 43 45 0 0 0
SMALL
GASTEIGER

@<TRIPOS>ATOM
      1 P          22.1122   70.5718   -0.5257 P.3     1  UNL1        0.2189
      2 O          23.2672   69.6485    0.1308 O.co2   1  UNL1       -0.4371
      3 O          20.8857   70.7496    0.3202 O.2     1  UNL1       -0.5170
      4 O          21.8708   69.9137   -1.9839 O.3     1  UNL1       -0.3112
      5 C          21.3567   70.7335   -3.0190 C.3     1  UNL1        0.1811
      6 O          19.3664   71.8010   -3.8393 O.3     1  UNL1       -0.3308
      7 O          17.8620   70.0396   -1.9353 O.3     1  UNL1       -0.3794
      8 O          17.5114   68.7699   -4.3231 O.3     1  UNL1       -0.3779
      9 C          19.0319   69.7507   -2.6991 C.3     1  UNL1        0.1713
     10 C          18.6730   69.5572   -4.1576 C.3     1  UNL1        0.1895
     11 C          19.8850   71.0122   -2.7460 C.3     1  UNL1        0.1764
     12 C          18.4806   70.9891   -4.6274 C.3     1  UNL1        0.2383
     13 H          17.3015   69.2485   -1.8910 H       1  UNL1        0.2105
     14 H          17.6843   67.8683   -4.0100 H       1  UNL1        0.2106
     15 O          20.7746   72.3349   -5.5784 O.2     1  UNL1       -0.2464
     16 O          19.6203   71.5781   -9.9756 O.2     1  UNL1       -0.2670
     17 N          18.8046   71.1582   -6.0159 N.ar    1  UNL1       -0.2551
     18 N          20.1981   71.9568   -7.7671 N.ar    1  UNL1       -0.2743
     19 C          19.9803   71.8511   -6.3874 C.ar    1  UNL1        0.3323
     20 C          17.9611   70.6397   -6.9924 C.ar    1  UNL1        0.0869
     21 C          18.1824   70.7503   -8.3039 C.ar    1  UNL1        0.0795
     22 C          19.3888   71.4597   -8.7764 C.ar    1  UNL1        0.2626
     23 H          21.0108   72.4358   -8.0495 H       1  UNL1        0.1734
     24 O          22.8957   71.9429   -0.8711 O.3     1  UNL1       -0.2703
     25 P          22.5835   73.4756   -0.4632 P.3     1  UNL1        0.2208
     26 O          21.2464   73.8191   -1.3069 O.co2   1  UNL1       -0.4371
     27 O          23.7256   74.4205   -0.7010 O.2     1  UNL1       -0.5170
     28 O          22.0884   73.3973    1.0710 O.3     1  UNL1       -0.2858
     29 O          23.7746   74.3283    2.4519 O.3     1  UNL1       -0.3258
     30 O          21.1771   73.0111    5.3792 O.3     1  UNL1       -0.3794
     31 O          21.4120   75.8247    4.8536 O.3     1  UNL1       -0.3794
     32 O          21.5980   71.4181    2.9991 O.3     1  UNL1       -0.3775
     33 C          21.5387   73.5559    4.1072 C.3     1  UNL1        0.1715
     34 C          22.3186   74.8506    4.3443 C.3     1  UNL1        0.1694
     35 C          22.3976   72.5407    3.3554 C.3     1  UNL1        0.1967
     36 C          22.9680   75.3515    3.0471 C.3     1  UNL1        0.1761
     37 C          23.0356   73.1546    2.1079 C.3     1  UNL1        0.2704
     38 H          20.6311   73.6505    5.8615 H       1  UNL1        0.2105
     39 H          21.0085   75.4959    5.6723 H       1  UNL1        0.2105
     40 H          21.2000   71.0384    3.7974 H       1  UNL1        0.2106
     41 O          25.2227   76.1061    3.2837 O.3     1  UNL1       -0.3794
     42 C          23.8792   76.5526    3.2905 C.3     1  UNL1        0.1693
     43 H          25.8141   76.8601    3.4371 H       1  UNL1        0.2105
@<TRIPOS>UNITY_ATOM_ATTR
2 1
charge -1
26 1
charge -1
@<TRIPOS>BOND
     1    25    28    1
     2    25    24    1
     3    25    26    1
     4    25    27    2
     5     1     4    1
     6     1    24    1
     7     1     2    1
     8     1     3    2
     9     6    11    1
    10     6    12    1
    11    29    36    1
    12    29    37    1
    13     7     9    1
    14     7    13    1
    15     8    10    1
    16     8    14    1
    17    28    37    1
    18     4     5    1
    19    30    33    1
    20    30    38    1
    21    31    34    1
    22    31    39    1
    23    32    35    1
    24    32    40    1
    25    41    42    1
    26    41    43    1
    27    15    19    2
    28    16    22    2
    29    17    12    1
    30    17    19   ar
    31    17    20   ar
    32    18    19   ar
    33    18    22   ar
    34    18    23    1
    35     9    10    1
    36     9    11    1
    37    10    12    1
    38    11     5    1
    39    33    34    1
    40    33    35    1
    41    34    36    1
    42    35    37    1
    43    36    42    1
    44    20    21   ar
    45    21    22   ar
@<TRIPOS>MOLECULE
*****
 43 45 0 0 0
SMALL
GASTEIGER

@<TRIPOS>ATOM
      1 P          18.7842   72.7416   -2.3666 P.3     1  UNL1        0.2189
      2 O          19.8135   73.6300   -3.2435 O.co2   1  UNL1       -0.4371
      3 O          17.4315   73.3575   -2.1612 O.2     1  UNL1       -0.5170
      4 O          19.6139   72.4029   -1.0194 O.3     1  UNL1       -0.3112
      5 C          20.5358   73.3630   -0.5337 C.3     1  UNL1        0.1811
      6 O          22.7246   73.3031    0.4559 O.3     1  UNL1       -0.3308
      7 O          23.1946   70.8383   -1.1856 O.3     1  UNL1       -0.3794
      8 O          22.6457   69.8138    1.2813 O.3     1  UNL1       -0.3779
      9 C          21.9991   71.2817   -0.5458 C.3     1  UNL1        0.1713
     10 C          22.0951   71.0726    0.9511 C.3     1  UNL1        0.1895
     11 C          21.9458   72.8007   -0.6519 C.3     1  UNL1        0.1764
     12 C          22.9848   72.2291    1.3744 C.3     1  UNL1        0.2383
     13 H          23.2507   69.8709   -1.1309 H       1  UNL1        0.2105
     14 H          22.0430   69.1111    0.9918 H       1  UNL1        0.2106
     15 O          20.5064   71.8806    2.6836 O.2     1  UNL1       -0.2464
     16 O          22.0137   73.9924    6.4927 O.2     1  UNL1       -0.2670
     17 N          22.7021   72.6777    2.7086 N.ar    1  UNL1       -0.2551
     18 N          21.2590   72.9322    4.5792 N.ar    1  UNL1       -0.2743
     19 C          21.4247   72.4538    3.2732 C.ar    1  UNL1        0.3323
     20 C          23.6857   73.3313    3.4430 C.ar    1  UNL1        0.0869
     21 C          23.5112   73.7825    4.6868 C.ar    1  UNL1        0.0795
     22 C          22.2054   73.5890    5.3497 C.ar    1  UNL1        0.2626
     23 H          20.3770   72.7879    4.9928 H       1  UNL1        0.1734
     24 O          18.7677   71.3270   -3.1485 O.3     1  UNL1       -0.2703
     25 P          19.9256   70.5552   -3.9711 P.3     1  UNL1        0.2208
     26 O          19.7115   69.0079   -3.5498 O.co2   1  UNL1       -0.4371
     27 O          21.3104   71.0788   -3.7224 O.2     1  UNL1       -0.5170
     28 O          19.4498   70.6278   -5.5117 O.3     1  UNL1       -0.2858
     29 O          19.7578   72.3972   -7.0579 O.3     1  UNL1       -0.3258
     30 O          16.1007   71.0013   -8.3725 O.3     1  UNL1       -0.3794
     31 O          18.4537   70.5119   -9.9448 O.3     1  UNL1       -0.3794
     32 O          16.6808   71.0831   -5.5377 O.3     1  UNL1       -0.3775
     33 C          17.4165   70.8909   -7.8231 C.3     1  UNL1        0.1715
     34 C          18.4128   71.4268   -8.8532 C.3     1  UNL1        0.1694
     35 C          17.4882   71.7042   -6.5321 C.3     1  UNL1        0.1967
     36 C          19.8101   71.5896   -8.2398 C.3     1  UNL1        0.1761
     37 C          18.9274   71.8468   -6.0335 C.3     1  UNL1        0.2704
     38 H          16.0483   70.4867   -9.1922 H       1  UNL1        0.2105
     39 H          17.5652   70.4177  -10.3227 H       1  UNL1        0.2105
     40 H          15.7723   70.9989   -5.8652 H       1  UNL1        0.2106
     41 O          21.8882   72.7479   -8.4602 O.3     1  UNL1       -0.3794
     42 C          20.7814   72.2698   -9.2022 C.3     1  UNL1        0.1693
     43 H          22.5150   73.1830   -9.0598 H       1  UNL1        0.2105
@<TRIPOS>UNITY_ATOM_ATTR
2 1
charge -1
26 1
charge -1
@<TRIPOS>BOND
     1    25    28    1
     2    25    24    1
     3    25    26    1
     4    25    27    2
     5     1     4    1
     6     1    24    1
     7     1     2    1
     8     1     3    2
     9     6    11    1
    10     6    12    1
    11    29    36    1
    12    29    37    1
    13     7     9    1
    14     7    13    1
    15     8    10    1
    16     8    14    1
    17    28    37    1
    18     4     5    1
    19    30    33    1
    20    30    38    1
    21    31    34    1
    22    31    39    1
    23    32    35    1
    24    32    40    1
    25    41    42    1
    26    41    43    1
    27    15    19    2
    28    16    22    2
    29    17    12    1
    30    17    19   ar
    31    17    20   ar
    32    18    19   ar
    33    18    22   ar
    34    18    23    1
    35     9    10    1
    36     9    11    1
    37    10    12    1
    38    11     5    1
    39    33    34    1
    40    33    35    1
    41    34    36    1
    42    35    37    1
    43    36    42    1
    44    20    21   ar
    45    21    22   ar
@<TRIPOS>MOLECULE
*****
 43 45 0 0 0
SMALL
GASTEIGER

@<TRIPOS>ATOM
      1 P          19.7038   73.2916   -3.2772 P.3     1  UNL1        0.2189
      2 O          18.9334   74.6041   -3.8261 O.co2   1  UNL1       -0.4371
      3 O          18.9131   72.0182   -3.3443 O.2     1  UNL1       -0.5170
      4 O          20.2112   73.7269   -1.8037 O.3     1  UNL1       -0.3112
      5 C          20.4410   72.7130   -0.8409 C.3     1  UNL1        0.1811
      6 O          22.6320   73.1435    0.0468 O.3     1  UNL1       -0.3308
      7 O          23.3867   70.4408   -1.0100 O.3     1  UNL1       -0.3794
      8 O          23.0004   69.9541    1.6453 O.3     1  UNL1       -0.3779
      9 C          22.1530   70.8742   -0.4396 C.3     1  UNL1        0.1713
     10 C          22.2927   71.0283    1.0605 C.3     1  UNL1        0.1895
     11 C          21.9087   72.3104   -0.8855 C.3     1  UNL1        0.1764
     12 C          23.0357   72.3486    1.1737 C.3     1  UNL1        0.2383
     13 H          23.5640   69.5257   -0.7394 H       1  UNL1        0.2105
     14 H          22.4869   69.1371    1.5476 H       1  UNL1        0.2106
     15 O          20.7302   71.8762    2.7356 O.2     1  UNL1       -0.2464
     16 O          21.9091   75.1223    5.7875 O.2     1  UNL1       -0.2670
     17 N          22.7154   73.0556    2.3816 N.ar    1  UNL1       -0.2551
     18 N          21.3192   73.4928    4.2540 N.ar    1  UNL1       -0.2743
     19 C          21.5322   72.7424    3.0906 C.ar    1  UNL1        0.3323
     20 C          23.5700   74.0468    2.8519 C.ar    1  UNL1        0.0869
     21 C          23.3517   74.7540    3.9624 C.ar    1  UNL1        0.0795
     22 C          22.1381   74.4889    4.7617 C.ar    1  UNL1        0.2626
     23 H          20.5010   73.2923    4.7641 H       1  UNL1        0.1734
     24 O          21.0686   73.2825   -4.1434 O.3     1  UNL1       -0.2703
     25 P          21.3477   73.6659   -5.6887 P.3     1  UNL1        0.2208
     26 O          22.6838   72.8256   -6.0441 O.co2   1  UNL1       -0.4371
     27 O          21.4569   75.1409   -5.9467 O.2     1  UNL1       -0.5170
     28 O          20.1713   72.9283   -6.5115 O.3     1  UNL1       -0.2858
     29 O          19.4029   70.7054   -6.2206 O.3     1  UNL1       -0.3258
     30 O          18.7268   71.1120  -10.2738 O.3     1  UNL1       -0.3794
     31 O          16.5001   71.0890   -8.4601 O.3     1  UNL1       -0.3794
     32 O          21.0932   72.2765   -9.0806 O.3     1  UNL1       -0.3775
     33 C          18.8024   71.5515   -8.9149 C.3     1  UNL1        0.1715
     34 C          17.8238   70.7171   -8.0860 C.3     1  UNL1        0.1694
     35 C          20.2313   71.3645   -8.4085 C.3     1  UNL1        0.1967
     36 C          18.0378   70.9432   -6.5833 C.3     1  UNL1        0.1761
     37 C          20.3248   71.5642   -6.8947 C.3     1  UNL1        0.2704
     38 H          17.8221   71.2285  -10.6016 H       1  UNL1        0.2105
     39 H          16.3783   70.9418   -9.4113 H       1  UNL1        0.2105
     40 H          21.0252   72.1398  -10.0380 H       1  UNL1        0.2106
     41 O          17.8942   69.6895   -4.5544 O.3     1  UNL1       -0.3794
     42 C          17.1811   70.0049   -5.7360 C.3     1  UNL1        0.1693
     43 H          17.3610   69.0931   -4.0051 H       1  UNL1        0.2105
@<TRIPOS>UNITY_ATOM_ATTR
2 1
charge -1
26 1
charge -1
@<TRIPOS>BOND
     1    25    28    1
     2    25    24    1
     3    25    26    1
     4    25    27    2
     5     1     4    1
     6     1    24    1
     7     1     2    1
     8     1     3    2
     9     6    11    1
    10     6    12    1
    11    29    36    1
    12    29    37    1
    13     7     9    1
    14     7    13    1
    15     8    10    1
    16     8    14    1
    17    28    37    1
    18     4     5    1
    19    30    33    1
    20    30    38    1
    21    31    34    1
    22    31    39    1
    23    32    35    1
    24    32    40    1
    25    41    42    1
    26    41    43    1
    27    15    19    2
    28    16    22    2
    29    17    12    1
    30    17    19   ar
    31    17    20   ar
    32    18    19   ar
    33    18    22   ar
    34    18    23    1
    35     9    10    1
    36     9    11    1
    37    10    12    1
    38    11     5    1
    39    33    34    1
    40    33    35    1
    41    34    36    1
    42    35    37    1
    43    36    42    1
    44    20    21   ar
    45    21    22   ar
@<TRIPOS>MOLECULE
*****
 43 45 0 0 0
SMALL
GASTEIGER

@<TRIPOS>ATOM
      1 P          21.3549   73.5391   -5.6695 P.3     1  UNL1        0.2189
      2 O          21.4361   74.6741   -4.5195 O.co2   1  UNL1       -0.4371
      3 O          21.7596   73.9958   -7.0403 O.2     1  UNL1       -0.5170
      4 O          19.8500   72.9596   -5.5378 O.3     1  UNL1       -0.3112
      5 C          19.6784   71.5897   -5.2190 C.3     1  UNL1        0.1811
      6 O          17.4189   72.4071   -5.2263 O.3     1  UNL1       -0.3308
      7 O          16.6406   69.7172   -4.1541 O.3     1  UNL1       -0.3794
      8 O          15.9990   69.5121   -6.7966 O.3     1  UNL1       -0.3779
      9 C          17.6546   70.0524   -5.1000 C.3     1  UNL1        0.1713
     10 C          17.0324   70.4054   -6.4349 C.3     1  UNL1        0.1895
     11 C          18.2717   71.3794   -4.6759 C.3     1  UNL1        0.1764
     12 C          16.5250   71.8151   -6.1831 C.3     1  UNL1        0.2383
     13 H          16.2321   68.8729   -4.4038 H       1  UNL1        0.2105
     14 H          16.3721   68.6293   -6.9460 H       1  UNL1        0.2106
     15 O          18.4839   71.6688   -8.2127 O.2     1  UNL1       -0.2464
     16 O          16.4052   74.9385  -10.7085 O.2     1  UNL1       -0.2670
     17 N          16.5201   72.6164   -7.3744 N.ar    1  UNL1       -0.2551
     18 N          17.4472   73.2968   -9.4539 N.ar    1  UNL1       -0.2743
     19 C          17.5511   72.4660   -8.3310 C.ar    1  UNL1        0.3323
     20 C          15.5008   73.5386   -7.5851 C.ar    1  UNL1        0.0869
     21 C          15.4169   74.3243   -8.6607 C.ar    1  UNL1        0.0795
     22 C          16.4543   74.2297   -9.7080 C.ar    1  UNL1        0.2626
     23 H          18.1545   73.2098  -10.1335 H       1  UNL1        0.1734
     24 O          22.2589   72.3433   -5.0646 O.3     1  UNL1       -0.2703
     25 P          23.1280   72.2534   -3.7046 P.3     1  UNL1        0.2208
     26 O          24.3175   73.3215   -3.9531 O.co2   1  UNL1       -0.4371
     27 O          23.5996   70.8688   -3.3662 O.2     1  UNL1       -0.5170
     28 O          22.1956   72.9364   -2.5780 O.3     1  UNL1       -0.2858
     29 O          21.5507   71.1961   -1.1042 O.3     1  UNL1       -0.3258
     30 O          19.5055   74.3304    0.6407 O.3     1  UNL1       -0.3794
     31 O          21.8293   73.2547    1.9411 O.3     1  UNL1       -0.3794
     32 O          19.6892   74.1532   -2.2428 O.3     1  UNL1       -0.3775
     33 C          20.5898   73.7080   -0.0537 C.3     1  UNL1        0.1715
     34 C          21.1740   72.6183    0.8475 C.3     1  UNL1        0.1694
     35 C          20.0678   73.1053   -1.3567 C.3     1  UNL1        0.1967
     36 C          22.1606   71.7314    0.0761 C.3     1  UNL1        0.1761
     37 C          21.1099   72.2019   -2.0185 C.3     1  UNL1        0.2704
     38 H          19.8303   74.7155    1.4688 H       1  UNL1        0.2105
     39 H          21.1954   73.8120    2.4195 H       1  UNL1        0.2105
     40 H          19.0290   74.7178   -1.8123 H       1  UNL1        0.2106
     41 O          21.7752   69.4473    0.6618 O.3     1  UNL1       -0.3794
     42 C          22.6353   70.5439    0.9108 C.3     1  UNL1        0.1693
     43 H          22.0654   68.6840    1.1862 H       1  UNL1        0.2105
@<TRIPOS>UNITY_ATOM_ATTR
2 1
charge -1
26 1
charge -1
@<TRIPOS>BOND
     1    25    28    1
     2    25    24    1
     3    25    26    1
     4    25    27    2
     5     1     4    1
     6     1    24    1
     7     1     2    1
     8     1     3    2
     9     6    11    1
    10     6    12    1
    11    29    36    1
    12    29    37    1
    13     7     9    1
    14     7    13    1
    15     8    10    1
    16     8    14    1
    17    28    37    1
    18     4     5    1
    19    30    33    1
    20    30    38    1
    21    31    34    1
    22    31    39    1
    23    32    35    1
    24    32    40    1
    25    41    42    1
    26    41    43    1
    27    15    19    2
    28    16    22    2
    29    17    12    1
    30    17    19   ar
    31    17    20   ar
    32    18    19   ar
    33    18    22   ar
    34    18    23    1
    35     9    10    1
    36     9    11    1
    37    10    12    1
    38    11     5    1
    39    33    34    1
    40    33    35    1
    41    34    36    1
    42    35    37    1
    43    36    42    1
    44    20    21   ar
    45    21    22   ar
@<TRIPOS>MOLECULE
*****
 43 45 0 0 0
SMALL
GASTEIGER

@<TRIPOS>ATOM
      1 P          20.8652   70.1872   -2.7656 P.3     1  UNL1        0.2189
      2 O          22.4345   70.0267   -3.1249 O.co2   1  UNL1       -0.4371
      3 O          20.1445   68.9013   -2.4852 O.2     1  UNL1       -0.5170
      4 O          20.2758   71.0713   -3.9858 O.3     1  UNL1       -0.3112
      5 C          19.4308   70.4397   -4.9318 C.3     1  UNL1        0.1811
      6 O          18.8052   72.6232   -5.7160 O.3     1  UNL1       -0.3308
      7 O          16.0938   71.4539   -6.2373 O.3     1  UNL1       -0.3794
      8 O          17.2177   71.4796   -8.7218 O.3     1  UNL1       -0.3779
      9 C          17.3788   70.8506   -6.3788 C.3     1  UNL1        0.1713
     10 C          18.0812   71.3913   -7.6068 C.3     1  UNL1        0.1895
     11 C          18.2658   71.3661   -5.2523 C.3     1  UNL1        0.1764
     12 C          18.5552   72.7520   -7.1252 C.3     1  UNL1        0.2383
     13 H          15.5095   71.1396   -6.9457 H       1  UNL1        0.2105
     14 H          16.9440   70.5887   -8.9903 H       1  UNL1        0.2106
     15 O          20.4195   70.9979   -8.3189 O.2     1  UNL1       -0.2464
     16 O          23.1559   74.4803   -9.5941 O.2     1  UNL1       -0.2670
     17 N          19.7633   73.1733   -7.7765 N.ar    1  UNL1       -0.2551
     18 N          21.7804   72.7333   -8.9531 N.ar    1  UNL1       -0.2743
     19 C          20.6323   72.2119   -8.3431 C.ar    1  UNL1        0.3323
     20 C          20.0760   74.5264   -7.8490 C.ar    1  UNL1        0.0869
     21 C          21.1755   75.0072   -8.4331 C.ar    1  UNL1        0.0795
     22 C          22.1359   74.0693   -9.0496 C.ar    1  UNL1        0.2626
     23 H          22.4007   72.0821   -9.3543 H       1  UNL1        0.1734
     24 O          20.8796   71.2329   -1.5331 O.3     1  UNL1       -0.2703
     25 P          21.5928   71.1567   -0.0845 P.3     1  UNL1        0.2208
     26 O          23.0825   71.7173   -0.3744 O.co2   1  UNL1       -0.4371
     27 O          21.5557   69.7960    0.5488 O.2     1  UNL1       -0.5170
     28 O          20.8819   72.3176    0.7825 O.3     1  UNL1       -0.2858
     29 O          21.4353   74.5650    1.2922 O.3     1  UNL1       -0.3258
     30 O          20.1338   73.3450    5.0163 O.3     1  UNL1       -0.3794
     31 O          18.5023   75.1197    3.4552 O.3     1  UNL1       -0.3794
     32 O          21.6707   71.5358    3.3597 O.3     1  UNL1       -0.3775
     33 C          20.1415   73.3828    3.5866 C.3     1  UNL1        0.1715
     34 C          19.8599   74.8198    3.1433 C.3     1  UNL1        0.1694
     35 C          21.5080   72.9226    3.0824 C.3     1  UNL1        0.1967
     36 C          20.1143   74.9958    1.6402 C.3     1  UNL1        0.1761
     37 C          21.6761   73.1873    1.5852 C.3     1  UNL1        0.2704
     38 H          19.2687   73.6357    5.3428 H       1  UNL1        0.2105
     39 H          18.3549   75.0042    4.4071 H       1  UNL1        0.2105
     40 H          21.5623   71.3814    4.3106 H       1  UNL1        0.2106
     41 O          20.7400   76.6345    0.0178 O.3     1  UNL1       -0.3794
     42 C          19.9923   76.4550    1.2065 C.3     1  UNL1        0.1693
     43 H          20.6713   77.5586   -0.2702 H       1  UNL1        0.2105
@<TRIPOS>UNITY_ATOM_ATTR
2 1
charge -1
26 1
charge -1
@<TRIPOS>BOND
     1    25    28    1
     2    25    24    1
     3    25    26    1
     4    25    27    2
     5     1     4    1
     6     1    24    1
     7     1     2    1
     8     1     3    2
     9     6    11    1
    10     6    12    1
    11    29    36    1
    12    29    37    1
    13     7     9    1
    14     7    13    1
    15     8    10    1
    16     8    14    1
    17    28    37    1
    18     4     5    1
    19    30    33    1
    20    30    38    1
    21    31    34    1
    22    31    39    1
    23    32    35    1
    24    32    40    1
    25    41    42    1
    26    41    43    1
    27    15    19    2
    28    16    22    2
    29    17    12    1
    30    17    19   ar
    31    17    20   ar
    32    18    19   ar
    33    18    22   ar
    34    18    23    1
    35     9    10    1
    36     9    11    1
    37    10    12    1
    38    11     5    1
    39    33    34    1
    40    33    35    1
    41    34    36    1
    42    35    37    1
    43    36    42    1
    44    20    21   ar
    45    21    22   ar
@<TRIPOS>MOLECULE
*****
 43 45 0 0 0
SMALL
GASTEIGER

@<TRIPOS>ATOM
      1 P          19.3608   74.2677   -3.9553 P.3     1  UNL1        0.2189
      2 O          18.8338   75.7827   -4.1662 O.co2   1  UNL1       -0.4371
      3 O          18.2824   73.2286   -3.8626 O.2     1  UNL1       -0.5170
      4 O          20.3462   74.3737   -2.6763 O.3     1  UNL1       -0.3112
      5 C          20.2732   73.3675   -1.6814 C.3     1  UNL1        0.1811
      6 O          22.2911   73.0387   -0.4190 O.3     1  UNL1       -0.3308
      7 O          22.6544   70.5230   -2.0097 O.3     1  UNL1       -0.3794
      8 O          21.6675   69.5930    0.3563 O.3     1  UNL1       -0.3779
      9 C          21.4518   71.1181   -1.5249 C.3     1  UNL1        0.1713
     10 C          21.3271   70.9089   -0.0301 C.3     1  UNL1        0.1895
     11 C          21.6044   72.6309   -1.6226 C.3     1  UNL1        0.1764
     12 C          22.2934   71.9467    0.5151 C.3     1  UNL1        0.2383
     13 H          22.5806   69.5567   -1.9575 H       1  UNL1        0.2105
     14 H          21.0235   68.9700   -0.0150 H       1  UNL1        0.2106
     15 O          23.0807   70.7900    2.9687 O.2     1  UNL1       -0.2464
     16 O          20.7220   73.9101    5.4064 O.2     1  UNL1       -0.2670
     17 N          21.9000   72.4366    1.8060 N.ar    1  UNL1       -0.2551
     18 N          21.9057   72.3447    4.1805 N.ar    1  UNL1       -0.2743
     19 C          22.3495   71.7825    2.9767 C.ar    1  UNL1        0.3323
     20 C          21.0777   73.5540    1.9021 C.ar    1  UNL1        0.0869
     21 C          20.6623   74.0768    3.0577 C.ar    1  UNL1        0.0795
     22 C          21.0870   73.4531    4.3276 C.ar    1  UNL1        0.2626
     23 H          22.2060   71.9054    5.0091 H       1  UNL1        0.1734
     24 O          20.3864   74.0648   -5.1882 O.3     1  UNL1       -0.2703
     25 P          21.2914   72.7964   -5.6184 P.3     1  UNL1        0.2208
     26 O          20.7979   71.6300   -4.6116 O.co2   1  UNL1       -0.4371
     27 O          22.7697   73.0565   -5.5875 O.2     1  UNL1       -0.5170
     28 O          20.7195   72.3574   -7.0624 O.3     1  UNL1       -0.2858
     29 O          18.3583   72.1562   -7.0334 O.3     1  UNL1       -0.3258
     30 O          19.1128   70.5367  -10.7561 O.3     1  UNL1       -0.3794
     31 O          17.9234   73.1433  -10.5584 O.3     1  UNL1       -0.3794
     32 O          20.9062   69.9862   -8.5515 O.3     1  UNL1       -0.3775
     33 C          19.3215   71.4255   -9.6553 C.3     1  UNL1        0.1715
     34 C          18.0477   72.2492   -9.4559 C.3     1  UNL1        0.1694
     35 C          19.6332   70.6062   -8.4043 C.3     1  UNL1        0.1967
     36 C          18.0946   73.0313   -8.1364 C.3     1  UNL1        0.1761
     37 C          19.6070   71.4701   -7.1422 C.3     1  UNL1        0.2704
     38 H          18.9149   71.0506  -11.5537 H       1  UNL1        0.2105
     39 H          17.8954   72.6368  -11.3854 H       1  UNL1        0.2105
     40 H          20.9098   69.4419   -9.3538 H       1  UNL1        0.2106
     41 O          15.7531   73.1154   -8.6047 O.3     1  UNL1       -0.3794
     42 C          16.7717   73.7349   -7.8412 C.3     1  UNL1        0.1693
     43 H          14.9053   73.5527   -8.4268 H       1  UNL1        0.2105
@<TRIPOS>UNITY_ATOM_ATTR
2 1
charge -1
26 1
charge -1
@<TRIPOS>BOND
     1    25    28    1
     2    25    24    1
     3    25    26    1
     4    25    27    2
     5     1     4    1
     6     1    24    1
     7     1     2    1
     8     1     3    2
     9     6    11    1
    10     6    12    1
    11    29    36    1
    12    29    37    1
    13     7     9    1
    14     7    13    1
    15     8    10    1
    16     8    14    1
    17    28    37    1
    18     4     5    1
    19    30    33    1
    20    30    38    1
    21    31    34    1
    22    31    39    1
    23    32    35    1
    24    32    40    1
    25    41    42    1
    26    41    43    1
    27    15    19    2
    28    16    22    2
    29    17    12    1
    30    17    19   ar
    31    17    20   ar
    32    18    19   ar
    33    18    22   ar
    34    18    23    1
    35     9    10    1
    36     9    11    1
    37    10    12    1
    38    11     5    1
    39    33    34    1
    40    33    35    1
    41    34    36    1
    42    35    37    1
    43    36    42    1
    44    20    21   ar
    45    21    22   ar
