@<TRIPOS>MOLECULE
UD2
 46 48 0 0 0
SMALL
GASTEIGER

@<TRIPOS>ATOM
      1 P          22.0085   70.8485   -2.7033 P.3     1  UNL1        0.2189
      2 O          21.3914   69.3620   -2.7321 O.3     1  UNL1       -0.4371
      3 O          23.3207   70.8520   -3.3866 O.2     1  UNL1       -0.5170
      4 O          21.0077   71.8596   -3.4580 O.3     1  UNL1       -0.3112
      5 C          19.9946   72.6026   -2.7775 C.3     1  UNL1        0.1811
      6 C          17.8398   71.4353   -5.4102 C.3     1  UNL1        0.2383
      7 C          17.9989   70.2157   -4.4672 C.3     1  UNL1        0.1895
      8 O          16.8262   69.3995   -4.4867 O.3     1  UNL1       -0.3779
      9 C          18.1776   70.8931   -3.0865 C.3     1  UNL1        0.1713
     10 C          18.6362   72.3242   -3.4257 C.3     1  UNL1        0.1764
     11 O          18.7501   72.4095   -4.8552 O.3     1  UNL1       -0.3308
     12 O          16.9365   70.9195   -2.3795 O.3     1  UNL1       -0.3794
     13 H          16.8774   68.6232   -3.9128 H       1  UNL1        0.2106
     14 H          16.5715   70.0444   -2.1913 H       1  UNL1        0.2105
     15 N          18.2299   71.0845   -6.7776 N.ar    1  UNL1       -0.2551
     16 C          17.2896   70.7122   -7.6641 C.ar    1  UNL1        0.3323
     17 N          17.6195   70.3842   -8.9274 N.ar    1  UNL1       -0.2743
     18 C          18.9073   70.4264   -9.3253 C.ar    1  UNL1        0.2626
     19 C          19.9074   70.8175   -8.4028 C.ar    1  UNL1        0.0795
     20 C          19.5476   71.1451   -7.1439 C.ar    1  UNL1        0.0869
     21 O          16.1244   70.6699   -7.3193 O.2     1  UNL1       -0.2464
     22 O          19.2072   70.1302  -10.4684 O.2     1  UNL1       -0.2670
     23 H          16.9291   70.1168   -9.5535 H       1  UNL1        0.1734
     24 O          22.1973   71.3220   -1.1757 O.3     1  UNL1       -0.2703
     25 P          22.5896   70.5634    0.1894 P.3     1  UNL1        0.2208
     26 O          21.4451   69.4908    0.5548 O.3     1  UNL1       -0.4371
     27 O          23.8813   69.8644    0.0120 O.2     1  UNL1       -0.5170
     28 O          22.7195   71.6375    1.3819 O.3     1  UNL1       -0.2865
     29 C          21.8333   72.7484    1.5289 C.3     1  UNL1        0.2611
     30 C          22.5664   74.0398    1.1581 C.3     1  UNL1        0.1582
     31 C          23.7370   74.2476    2.1240 C.3     1  UNL1        0.1625
     32 C          23.2023   74.2751    3.5585 C.3     1  UNL1        0.1686
     33 C          22.4445   72.9743    3.8369 C.3     1  UNL1        0.1760
     34 O          24.3828   75.4887    1.8311 O.3     1  UNL1       -0.3801
     35 O          22.3189   75.3866    3.7178 O.3     1  UNL1       -0.3794
     36 O          21.3891   72.8267    2.8850 O.3     1  UNL1       -0.3263
     37 H          25.1357   75.6850    2.4054 H       1  UNL1        0.2105
     38 H          21.9411   75.4657    4.6049 H       1  UNL1        0.2105
     39 C          22.6035   74.7616   -1.1690 C.2     1  UNL1        0.2231
     40 C          23.1256   74.6574   -2.5780 C.3     1  UNL1        0.0946
     41 N          23.0746   73.9377   -0.2123 N.am    1  UNL1       -0.2994
     42 O          21.7582   75.5876   -0.8947 O.2     1  UNL1       -0.2751
     43 H          23.7498   73.2765   -0.4314 H       1  UNL1        0.1496
     44 C          21.8562   73.0192    5.2484 C.3     1  UNL1        0.1693
     45 O          20.4640   73.3335    5.1752 O.3     1  UNL1       -0.3794
     46 H          20.0247   73.3789    6.0354 H       1  UNL1        0.2105
@<TRIPOS>BOND
     1    29    30    1
     2    30    41    1
     3    30    31    1
     4    31    34    1
     5    31    32    1
     6    32    35    1
     7    32    33    1
     8    33    36    1
     9    33    44    1
    10    39    40    1
    11    39    42    2
    12    39    41   am
    13    41    43    1
    14    29    28    1
    15    34    37    1
    16    35    38    1
    17    29    36    1
    18    44    45    1
    19    45    46    1
    20    15     6    1
    21    15    16   ar
    22    16    21    2
    23    16    17   ar
    24    17    23    1
    25    17    18   ar
    26    18    19   ar
    27    19    20   ar
    28    15    20   ar
    29    18    22    2
    30     6     7    1
    31     6    11    1
    32     7     9    1
    33     7     8    1
    34     8    13    1
    35     9    10    1
    36     9    12    1
    37    10     5    1
    38    10    11    1
    39    12    14    1
    40     5     4    1
    41     4     1    1
    42     1     2    1
    43     1    24    1
    44     1     3    2
    45    24    25    1
    46    28    25    1
    47    25    26    1
    48    25    27    2
@<TRIPOS>MOLECULE
UD2
 46 48 0 0 0
SMALL
GASTEIGER

@<TRIPOS>ATOM
      1 P          22.9528   72.1995   -3.3274 P.3     1  UNL1        0.2189
      2 O          23.4521   70.6717   -3.2383 O.3     1  UNL1       -0.4371
      3 O          23.6697   72.8904   -4.4218 O.2     1  UNL1       -0.5170
      4 O          21.3694   72.2303   -3.6197 O.3     1  UNL1       -0.3112
      5 C          20.3947   71.8040   -2.6659 C.3     1  UNL1        0.1811
      6 C          18.0452   71.2898   -5.3403 C.3     1  UNL1        0.2383
      7 C          17.9768   69.9858   -4.5054 C.3     1  UNL1        0.1895
      8 O          16.6714   69.4081   -4.5678 O.3     1  UNL1       -0.3779
      9 C          18.2869   70.4974   -3.0772 C.3     1  UNL1        0.1713
     10 C          19.0048   71.8411   -3.3062 C.3     1  UNL1        0.1764
     11 O          19.1254   72.0254   -4.7257 O.3     1  UNL1       -0.3308
     12 O          17.0766   70.6949   -2.3444 O.3     1  UNL1       -0.3794
     13 H          16.5786   68.5898   -4.0615 H       1  UNL1        0.2106
     14 H          16.5544   69.8907   -2.2219 H       1  UNL1        0.2105
     15 N          18.3553   70.9905   -6.7400 N.ar    1  UNL1       -0.2551
     16 C          17.3547   70.7870   -7.6154 C.ar    1  UNL1        0.3323
     17 N          17.6104   70.5100   -8.9077 N.ar    1  UNL1       -0.2743
     18 C          18.8833   70.4338   -9.3465 C.ar    1  UNL1        0.2626
     19 C          19.9463   70.6468   -8.4362 C.ar    1  UNL1        0.0795
     20 C          19.6607   70.9270   -7.1472 C.ar    1  UNL1        0.0869
     21 O          16.2021   70.8528   -7.2338 O.2     1  UNL1       -0.2464
     22 O          19.1161   70.1836  -10.5160 O.2     1  UNL1       -0.2670
     23 H          16.8772   70.3648   -9.5254 H       1  UNL1        0.1734
     24 O          23.2550   72.9454   -1.9325 O.3     1  UNL1       -0.2703
     25 P          23.1089   74.4660   -1.4234 P.3     1  UNL1        0.2208
     26 O          24.5593   75.1658   -1.4019 O.3     1  UNL1       -0.4371
     27 O          22.2167   75.2097   -2.3395 O.2     1  UNL1       -0.5170
     28 O          22.4850   74.4774    0.0609 O.3     1  UNL1       -0.2865
     29 C          21.2668   73.8115    0.3983 C.3     1  UNL1        0.2611
     30 C          20.7491   74.3406    1.7380 C.3     1  UNL1        0.1582
     31 C          21.7721   74.0219    2.8327 C.3     1  UNL1        0.1625
     32 C          22.0189   72.5111    2.8617 C.3     1  UNL1        0.1686
     33 C          22.4878   72.0524    1.4783 C.3     1  UNL1        0.1760
     34 O          21.2638   74.4472    4.0992 O.3     1  UNL1       -0.3801
     35 O          20.8073   71.8357    3.2041 O.3     1  UNL1       -0.3794
     36 O          21.5056   72.4063    0.5026 O.3     1  UNL1       -0.3263
     37 H          21.8617   74.2767    4.8399 H       1  UNL1        0.2105
     38 H          20.8899   70.8724    3.2404 H       1  UNL1        0.2105
     39 C          21.5595   76.6230    2.0058 C.2     1  UNL1        0.2231
     40 C          21.3665   78.1141    1.9167 C.3     1  UNL1        0.0946
     41 N          20.5605   75.7909    1.6513 N.am    1  UNL1       -0.2994
     42 O          22.6150   76.1701    2.3970 O.2     1  UNL1       -0.2751
     43 H          19.7161   76.1526    1.3394 H       1  UNL1        0.1496
     44 C          22.6793   70.5346    1.4824 C.3     1  UNL1        0.1693
     45 O          21.5873   69.9141    0.8007 O.3     1  UNL1       -0.3794
     46 H          21.6426   68.9494    0.7645 H       1  UNL1        0.2105
@<TRIPOS>BOND
     1    29    30    1
     2    30    41    1
     3    30    31    1
     4    31    34    1
     5    31    32    1
     6    32    35    1
     7    32    33    1
     8    33    36    1
     9    33    44    1
    10    39    40    1
    11    39    42    2
    12    39    41   am
    13    41    43    1
    14    29    28    1
    15    34    37    1
    16    35    38    1
    17    29    36    1
    18    44    45    1
    19    45    46    1
    20    15     6    1
    21    15    16   ar
    22    16    21    2
    23    16    17   ar
    24    17    23    1
    25    17    18   ar
    26    18    19   ar
    27    19    20   ar
    28    15    20   ar
    29    18    22    2
    30     6     7    1
    31     6    11    1
    32     7     9    1
    33     7     8    1
    34     8    13    1
    35     9    10    1
    36     9    12    1
    37    10     5    1
    38    10    11    1
    39    12    14    1
    40     5     4    1
    41     4     1    1
    42     1     2    1
    43     1    24    1
    44     1     3    2
    45    24    25    1
    46    28    25    1
    47    25    26    1
    48    25    27    2
@<TRIPOS>MOLECULE
UD2
 46 48 0 0 0
SMALL
GASTEIGER

@<TRIPOS>ATOM
      1 P          23.0145   72.2875   -3.1887 P.3     1  UNL1        0.2189
      2 O          23.5496   70.7760   -3.0449 O.3     1  UNL1       -0.4371
      3 O          23.7357   72.9641   -4.2891 O.2     1  UNL1       -0.5170
      4 O          21.4369   72.2696   -3.5119 O.3     1  UNL1       -0.3112
      5 C          20.4945   71.5202   -2.7426 C.3     1  UNL1        0.1811
      6 C          18.1100   71.1975   -5.4160 C.3     1  UNL1        0.2383
      7 C          17.9763   69.8785   -4.6132 C.3     1  UNL1        0.1895
      8 O          16.6419   69.3722   -4.6826 O.3     1  UNL1       -0.3779
      9 C          18.3189   70.3372   -3.1746 C.3     1  UNL1        0.1713
     10 C          19.1059   71.6465   -3.3742 C.3     1  UNL1        0.1764
     11 O          19.2301   71.8595   -4.7893 O.3     1  UNL1       -0.3308
     12 O          17.1238   70.5799   -2.4304 O.3     1  UNL1       -0.3794
     13 H          16.5080   68.5475   -4.1962 H       1  UNL1        0.2106
     14 H          16.5604   69.8015   -2.3249 H       1  UNL1        0.2105
     15 N          18.3979   70.9173   -6.8244 N.ar    1  UNL1       -0.2551
     16 C          17.3837   70.7260   -7.6866 C.ar    1  UNL1        0.3323
     17 N          17.6190   70.4666   -8.9865 N.ar    1  UNL1       -0.2743
     18 C          18.8848   70.3962   -9.4462 C.ar    1  UNL1        0.2626
     19 C          19.9620   70.5965   -8.5498 C.ar    1  UNL1        0.0795
     20 C          19.6968   70.8592   -7.2528 C.ar    1  UNL1        0.0869
     21 O          16.2372   70.7868   -7.2861 O.2     1  UNL1       -0.2464
     22 O          19.0991   70.1620  -10.6225 O.2     1  UNL1       -0.2670
     23 H          16.8761   70.3301   -9.5944 H       1  UNL1        0.1734
     24 O          23.2704   73.0811   -1.8110 O.3     1  UNL1       -0.2703
     25 P          22.3063   73.6565   -0.6567 P.3     1  UNL1        0.2208
     26 O          21.2442   74.6786   -1.3055 O.3     1  UNL1       -0.4371
     27 O          21.5837   72.5373   -0.0138 O.2     1  UNL1       -0.5170
     28 O          23.1905   74.4287    0.4454 O.3     1  UNL1       -0.2865
     29 C          22.6170   75.2006    1.5020 C.3     1  UNL1        0.2611
     30 C          23.7089   76.0340    2.1771 C.3     1  UNL1        0.1582
     31 C          24.7463   75.0936    2.7983 C.3     1  UNL1        0.1625
     32 C          24.0432   74.1529    3.7808 C.3     1  UNL1        0.1686
     33 C          22.9381   73.3918    3.0436 C.3     1  UNL1        0.1760
     34 O          25.7307   75.8618    3.4940 O.3     1  UNL1       -0.3801
     35 O          23.4707   74.9150    4.8451 O.3     1  UNL1       -0.3794
     36 O          22.0245   74.3250    2.4636 O.3     1  UNL1       -0.3263
     37 H          26.4211   75.3293    3.9124 H       1  UNL1        0.2105
     38 H          23.0073   74.3821    5.5063 H       1  UNL1        0.2105
     39 C          25.4769   76.4690    0.5577 C.2     1  UNL1        0.2231
     40 C          26.1449   77.3476   -0.4673 C.3     1  UNL1        0.0946
     41 N          24.3582   76.8894    1.1804 N.am    1  UNL1       -0.2994
     42 O          25.9461   75.3820    0.8232 O.2     1  UNL1       -0.2751
     43 H          23.9833   77.7588    0.9691 H       1  UNL1        0.1496
     44 C          22.1915   72.4935    4.0316 C.3     1  UNL1        0.1693
     45 O          20.9754   72.0367    3.4360 O.3     1  UNL1       -0.3794
     46 H          20.4491   71.4607    4.0073 H       1  UNL1        0.2105
@<TRIPOS>BOND
     1    29    30    1
     2    30    41    1
     3    30    31    1
     4    31    34    1
     5    31    32    1
     6    32    35    1
     7    32    33    1
     8    33    36    1
     9    33    44    1
    10    39    40    1
    11    39    42    2
    12    39    41   am
    13    41    43    1
    14    29    28    1
    15    34    37    1
    16    35    38    1
    17    29    36    1
    18    44    45    1
    19    45    46    1
    20    15     6    1
    21    15    16   ar
    22    16    21    2
    23    16    17   ar
    24    17    23    1
    25    17    18   ar
    26    18    19   ar
    27    19    20   ar
    28    15    20   ar
    29    18    22    2
    30     6     7    1
    31     6    11    1
    32     7     9    1
    33     7     8    1
    34     8    13    1
    35     9    10    1
    36     9    12    1
    37    10     5    1
    38    10    11    1
    39    12    14    1
    40     5     4    1
    41     4     1    1
    42     1     2    1
    43     1    24    1
    44     1     3    2
    45    24    25    1
    46    28    25    1
    47    25    26    1
    48    25    27    2
@<TRIPOS>MOLECULE
UD2
 46 48 0 0 0
SMALL
GASTEIGER

@<TRIPOS>ATOM
      1 P          22.8786   72.0202   -3.2305 P.3     1  UNL1        0.2189
      2 O          23.4876   70.5301   -3.2231 O.3     1  UNL1       -0.4371
      3 O          23.5665   72.8297   -4.2603 O.2     1  UNL1       -0.5170
      4 O          21.3041   71.9546   -3.5627 O.3     1  UNL1       -0.3112
      5 C          20.2933   72.0400   -2.5564 C.3     1  UNL1        0.1811
      6 C          18.0121   71.3689   -5.2550 C.3     1  UNL1        0.2383
      7 C          18.0002   70.0740   -4.4035 C.3     1  UNL1        0.1895
      8 O          16.7278   69.4278   -4.4756 O.3     1  UNL1       -0.3779
      9 C          18.2628   70.6193   -2.9783 C.3     1  UNL1        0.1713
     10 C          18.9127   71.9959   -3.2158 C.3     1  UNL1        0.1764
     11 O          19.0435   72.1680   -4.6359 O.3     1  UNL1       -0.3308
     12 O          17.0336   70.7624   -2.2646 O.3     1  UNL1       -0.3794
     13 H          16.6708   68.6122   -3.9595 H       1  UNL1        0.2106
     14 H          16.5525   69.9336   -2.1382 H       1  UNL1        0.2105
     15 N          18.3572   71.0683   -6.6462 N.ar    1  UNL1       -0.2551
     16 C          17.3807   70.8081   -7.5337 C.ar    1  UNL1        0.3323
     17 N          17.6688   70.5285   -8.8186 N.ar    1  UNL1       -0.2743
     18 C          18.9504   70.5070   -9.2376 C.ar    1  UNL1        0.2626
     19 C          19.9883   70.7801   -8.3144 C.ar    1  UNL1        0.0795
     20 C          19.6703   71.0614   -7.0333 C.ar    1  UNL1        0.0869
     21 O          16.2206   70.8242   -7.1700 O.2     1  UNL1       -0.2464
     22 O          19.2125   70.2545  -10.4004 O.2     1  UNL1       -0.2670
     23 H          16.9527   70.3421   -9.4452 H       1  UNL1        0.1734
     24 O          23.0936   72.6954   -1.7845 O.3     1  UNL1       -0.2703
     25 P          23.0649   74.2118   -1.2434 P.3     1  UNL1        0.2208
     26 O          24.5691   74.7817   -1.1651 O.3     1  UNL1       -0.4371
     27 O          22.2678   75.0499   -2.1656 O.2     1  UNL1       -0.5170
     28 O          22.4008   74.2457    0.2231 O.3     1  UNL1       -0.2865
     29 C          22.1314   75.4590    0.9278 C.3     1  UNL1        0.2611
     30 C          22.0044   75.1636    2.4242 C.3     1  UNL1        0.1582
     31 C          20.8184   74.2210    2.6509 C.3     1  UNL1        0.1625
     32 C          19.5527   74.8632    2.0765 C.3     1  UNL1        0.1686
     33 C          19.7743   75.1701    0.5931 C.3     1  UNL1        0.1760
     34 O          20.6470   73.9982    4.0524 O.3     1  UNL1       -0.3801
     35 O          19.2711   76.0752    2.7787 O.3     1  UNL1       -0.3794
     36 O          20.9097   76.0258    0.4498 O.3     1  UNL1       -0.3263
     37 H          19.9122   73.4082    4.2695 H       1  UNL1        0.2105
     38 H          18.4806   76.5371    2.4661 H       1  UNL1        0.2105
     39 C          23.7520   74.8761    4.0978 C.2     1  UNL1        0.2231
     40 C          25.0159   74.2224    4.5914 C.3     1  UNL1        0.0946
     41 N          23.2340   74.5275    2.9035 N.am    1  UNL1       -0.2994
     42 O          23.1993   75.7172    4.7755 O.2     1  UNL1       -0.2751
     43 H          23.6761   73.8557    2.3610 H       1  UNL1        0.1496
     44 C          18.5357   75.8664    0.0260 C.3     1  UNL1        0.1693
     45 O          18.8125   76.3290   -1.2976 O.3     1  UNL1       -0.3794
     46 H          18.0697   76.7817   -1.7199 H       1  UNL1        0.2105
@<TRIPOS>BOND
     1    29    30    1
     2    30    41    1
     3    30    31    1
     4    31    34    1
     5    31    32    1
     6    32    35    1
     7    32    33    1
     8    33    36    1
     9    33    44    1
    10    39    40    1
    11    39    42    2
    12    39    41   am
    13    41    43    1
    14    29    28    1
    15    34    37    1
    16    35    38    1
    17    29    36    1
    18    44    45    1
    19    45    46    1
    20    15     6    1
    21    15    16   ar
    22    16    21    2
    23    16    17   ar
    24    17    23    1
    25    17    18   ar
    26    18    19   ar
    27    19    20   ar
    28    15    20   ar
    29    18    22    2
    30     6     7    1
    31     6    11    1
    32     7     9    1
    33     7     8    1
    34     8    13    1
    35     9    10    1
    36     9    12    1
    37    10     5    1
    38    10    11    1
    39    12    14    1
    40     5     4    1
    41     4     1    1
    42     1     2    1
    43     1    24    1
    44     1     3    2
    45    24    25    1
    46    28    25    1
    47    25    26    1
    48    25    27    2
@<TRIPOS>MOLECULE
UD2
 46 48 0 0 0
SMALL
GASTEIGER

@<TRIPOS>ATOM
      1 P          22.8852   72.1570   -3.2414 P.3     1  UNL1        0.2189
      2 O          23.4944   70.6685   -3.1729 O.3     1  UNL1       -0.4371
      3 O          23.5773   72.9258   -4.2992 O.2     1  UNL1       -0.5170
      4 O          21.3121   72.0778   -3.5774 O.3     1  UNL1       -0.3112
      5 C          20.3057   71.9823   -2.5678 C.3     1  UNL1        0.1811
      6 C          18.0090   71.3642   -5.2659 C.3     1  UNL1        0.2383
      7 C          17.9734   70.0668   -4.4189 C.3     1  UNL1        0.1895
      8 O          16.6888   69.4452   -4.4917 O.3     1  UNL1       -0.3779
      9 C          18.2479   70.6021   -2.9922 C.3     1  UNL1        0.1713
     10 C          18.9236   71.9668   -3.2257 C.3     1  UNL1        0.1764
     11 O          19.0562   72.1413   -4.6453 O.3     1  UNL1       -0.3308
     12 O          17.0225   70.7661   -2.2765 O.3     1  UNL1       -0.3794
     13 H          16.6168   68.6291   -3.9784 H       1  UNL1        0.2106
     14 H          16.5258   69.9462   -2.1524 H       1  UNL1        0.2105
     15 N          18.3467   71.0619   -6.6586 N.ar    1  UNL1       -0.2551
     16 C          17.3649   70.8136   -7.5436 C.ar    1  UNL1        0.3323
     17 N          17.6463   70.5327   -8.8298 N.ar    1  UNL1       -0.2743
     18 C          18.9263   70.4979   -9.2526 C.ar    1  UNL1        0.2626
     19 C          19.9698   70.7583   -8.3320 C.ar    1  UNL1        0.0795
     20 C          19.6585   71.0413   -7.0495 C.ar    1  UNL1        0.0869
     21 O          16.2062   70.8417   -7.1765 O.2     1  UNL1       -0.2464
     22 O          19.1823   70.2442  -10.4165 O.2     1  UNL1       -0.2670
     23 H          16.9263   70.3549   -9.4545 H       1  UNL1        0.1734
     24 O          23.0939   72.8885   -1.8220 O.3     1  UNL1       -0.2703
     25 P          22.9789   74.4154   -1.3238 P.3     1  UNL1        0.2208
     26 O          24.3941   75.1553   -1.5320 O.3     1  UNL1       -0.4371
     27 O          21.9376   75.1137   -2.1088 O.2     1  UNL1       -0.5170
     28 O          22.5834   74.4421    0.2369 O.3     1  UNL1       -0.2865
     29 C          23.3432   73.7717    1.2441 C.3     1  UNL1        0.2611
     30 C          22.4961   72.6603    1.8685 C.3     1  UNL1        0.1582
     31 C          21.2720   73.2831    2.5467 C.3     1  UNL1        0.1625
     32 C          21.7419   74.3069    3.5837 C.3     1  UNL1        0.1686
     33 C          22.6183   75.3551    2.8930 C.3     1  UNL1        0.1760
     34 O          20.5137   72.2597    3.1955 O.3     1  UNL1       -0.3801
     35 O          22.4984   73.6453    4.5993 O.3     1  UNL1       -0.3794
     36 O          23.7213   74.7069    2.2564 O.3     1  UNL1       -0.3263
     37 H          19.7217   72.5835    3.6462 H       1  UNL1        0.2105
     38 H          22.8294   74.2350    5.2911 H       1  UNL1        0.2105
     39 C          22.4740   70.4515    0.8397 C.2     1  UNL1        0.2231
     40 C          22.0234   69.4975   -0.2352 C.3     1  UNL1        0.0946
     41 N          22.0575   71.7331    0.8224 N.am    1  UNL1       -0.2994
     42 O          23.2126   70.0665    1.7220 O.2     1  UNL1       -0.2751
     43 H          21.4679   72.0416    0.1166 H       1  UNL1        0.1496
     44 C          23.1408   76.3481    3.9329 C.3     1  UNL1        0.1693
     45 O          22.2419   76.3935    5.0430 O.3     1  UNL1       -0.3794
     46 H          22.5108   77.0042    5.7428 H       1  UNL1        0.2105
@<TRIPOS>BOND
     1    29    30    1
     2    30    41    1
     3    30    31    1
     4    31    34    1
     5    31    32    1
     6    32    35    1
     7    32    33    1
     8    33    36    1
     9    33    44    1
    10    39    40    1
    11    39    42    2
    12    39    41   am
    13    41    43    1
    14    29    28    1
    15    34    37    1
    16    35    38    1
    17    29    36    1
    18    44    45    1
    19    45    46    1
    20    15     6    1
    21    15    16   ar
    22    16    21    2
    23    16    17   ar
    24    17    23    1
    25    17    18   ar
    26    18    19   ar
    27    19    20   ar
    28    15    20   ar
    29    18    22    2
    30     6     7    1
    31     6    11    1
    32     7     9    1
    33     7     8    1
    34     8    13    1
    35     9    10    1
    36     9    12    1
    37    10     5    1
    38    10    11    1
    39    12    14    1
    40     5     4    1
    41     4     1    1
    42     1     2    1
    43     1    24    1
    44     1     3    2
    45    24    25    1
    46    28    25    1
    47    25    26    1
    48    25    27    2
@<TRIPOS>MOLECULE
UD2
 46 48 0 0 0
SMALL
GASTEIGER

@<TRIPOS>ATOM
      1 P          21.9445   70.6966   -0.4289 P.3     1  UNL1        0.2189
      2 O          21.5334   69.4103    0.4472 O.3     1  UNL1       -0.4371
      3 O          23.0290   70.3299   -1.3660 O.2     1  UNL1       -0.5170
      4 O          20.6653   71.2090   -1.2625 O.3     1  UNL1       -0.3112
      5 C          20.7176   71.5121   -2.6578 C.3     1  UNL1        0.1811
      6 C          18.2138   71.1504   -5.2146 C.3     1  UNL1        0.2383
      7 C          18.1753   69.8092   -4.4388 C.3     1  UNL1        0.1895
      8 O          16.8607   69.2492   -4.4533 O.3     1  UNL1       -0.3779
      9 C          18.5725   70.2492   -3.0084 C.3     1  UNL1        0.1713
     10 C          19.2943   71.5945   -3.2152 C.3     1  UNL1        0.1764
     11 O          19.3368   71.8444   -4.6291 O.3     1  UNL1       -0.3308
     12 O          17.4084   70.4249   -2.1992 O.3     1  UNL1       -0.3794
     13 H          16.7857   68.4088   -3.9812 H       1  UNL1        0.2106
     14 H          16.8832   69.6215   -2.0846 H       1  UNL1        0.2105
     15 N          18.4401   70.9142   -6.6422 N.ar    1  UNL1       -0.2551
     16 C          17.3889   70.7829   -7.4707 C.ar    1  UNL1        0.3323
     17 N          17.5673   70.5651   -8.7871 N.ar    1  UNL1       -0.2743
     18 C          18.8122   70.4766   -9.2978 C.ar    1  UNL1        0.2626
     19 C          19.9279   70.6140   -8.4373 C.ar    1  UNL1        0.0795
     20 C          19.7196   70.8360   -7.1225 C.ar    1  UNL1        0.0869
     21 O          16.2606   70.8606   -7.0241 O.2     1  UNL1       -0.2464
     22 O          18.9751   70.2799  -10.4892 O.2     1  UNL1       -0.2670
     23 H          16.7983   70.4715   -9.3703 H       1  UNL1        0.1734
     24 O          22.4532   71.8714    0.5480 O.3     1  UNL1       -0.2703
     25 P          21.7586   72.7299    1.7199 P.3     1  UNL1        0.2208
     26 O          20.7775   73.8293    1.0698 O.3     1  UNL1       -0.4371
     27 O          20.9776   71.8288    2.5954 O.2     1  UNL1       -0.5170
     28 O          22.8947   73.4704    2.5881 O.3     1  UNL1       -0.2865
     29 C          22.7978   74.8371    2.9931 C.3     1  UNL1        0.2611
     30 C          24.1834   75.3523    3.3897 C.3     1  UNL1        0.1582
     31 C          24.6941   74.5470    4.5885 C.3     1  UNL1        0.1625
     32 C          23.6835   74.6595    5.7332 C.3     1  UNL1        0.1686
     33 C          22.3168   74.1708    5.2461 C.3     1  UNL1        0.1760
     34 O          25.9554   75.0696    5.0119 O.3     1  UNL1       -0.3801
     35 O          23.5833   76.0224    6.1498 O.3     1  UNL1       -0.3794
     36 O          21.9141   74.9405    4.1115 O.3     1  UNL1       -0.3263
     37 H          26.3389   74.6056    5.7687 H       1  UNL1        0.2105
     38 H          22.9583   76.1682    6.8737 H       1  UNL1        0.2105
     39 C          26.0026   76.1580    1.9830 C.2     1  UNL1        0.2231
     40 C          26.9517   75.9936    0.8251 C.3     1  UNL1        0.0946
     41 N          25.1061   75.1917    2.2630 N.am    1  UNL1       -0.2994
     42 O          26.0449   77.1611    2.6644 O.2     1  UNL1       -0.2751
     43 H          25.0713   74.3900    1.7179 H       1  UNL1        0.1496
     44 C          21.2876   74.3357    6.3660 C.3     1  UNL1        0.1693
     45 O          21.9246   74.1455    7.6311 O.3     1  UNL1       -0.3794
     46 H          21.3305   74.2357    8.3887 H       1  UNL1        0.2105
@<TRIPOS>BOND
     1    29    30    1
     2    30    41    1
     3    30    31    1
     4    31    34    1
     5    31    32    1
     6    32    35    1
     7    32    33    1
     8    33    36    1
     9    33    44    1
    10    39    40    1
    11    39    42    2
    12    39    41   am
    13    41    43    1
    14    29    28    1
    15    34    37    1
    16    35    38    1
    17    29    36    1
    18    44    45    1
    19    45    46    1
    20    15     6    1
    21    15    16   ar
    22    16    21    2
    23    16    17   ar
    24    17    23    1
    25    17    18   ar
    26    18    19   ar
    27    19    20   ar
    28    15    20   ar
    29    18    22    2
    30     6     7    1
    31     6    11    1
    32     7     9    1
    33     7     8    1
    34     8    13    1
    35     9    10    1
    36     9    12    1
    37    10     5    1
    38    10    11    1
    39    12    14    1
    40     5     4    1
    41     4     1    1
    42     1     2    1
    43     1    24    1
    44     1     3    2
    45    24    25    1
    46    28    25    1
    47    25    26    1
    48    25    27    2
@<TRIPOS>MOLECULE
UD2
 46 48 0 0 0
SMALL
GASTEIGER

@<TRIPOS>ATOM
      1 P          22.3632   70.4960   -0.0393 P.3     1  UNL1        0.2189
      2 O          23.8390   69.8559   -0.0984 O.3     1  UNL1       -0.4371
      3 O          21.4178   69.5065    0.5229 O.2     1  UNL1       -0.5170
      4 O          22.3846   71.8083    0.8941 O.3     1  UNL1       -0.3112
      5 C          21.5007   71.9885    2.0021 C.3     1  UNL1        0.1811
      6 C          23.8726   73.9537    3.8591 C.3     1  UNL1        0.2383
      7 C          22.5001   74.6031    4.1701 C.3     1  UNL1        0.1895
      8 O          22.4907   75.1730    5.4804 O.3     1  UNL1       -0.3779
      9 C          21.5406   73.3907    4.0881 C.3     1  UNL1        0.1713
     10 C          22.3122   72.3560    3.2468 C.3     1  UNL1        0.1764
     11 O          23.5554   72.9619    2.8585 O.3     1  UNL1       -0.3308
     12 O          21.2744   72.8759    5.3939 O.3     1  UNL1       -0.3794
     13 H          21.6534   75.5920    5.7213 H       1  UNL1        0.2106
     14 H          20.8422   73.5065    5.9855 H       1  UNL1        0.2105
     15 N          24.8043   74.9484    3.3229 N.ar    1  UNL1       -0.2551
     16 C          25.8802   75.3106    4.0441 C.ar    1  UNL1        0.3323
     17 N          26.7529   76.2225    3.5761 N.ar    1  UNL1       -0.2743
     18 C          26.5601   76.7888    2.3675 C.ar    1  UNL1        0.2626
     19 C          25.4323   76.4161    1.5972 C.ar    1  UNL1        0.0795
     20 C          24.5760   75.4962    2.0893 C.ar    1  UNL1        0.0869
     21 O          26.0668   74.8081    5.1354 O.2     1  UNL1       -0.2464
     22 O          27.3494   77.6140    1.9426 O.2     1  UNL1       -0.2670
     23 H          27.5228   76.4732    4.1095 H       1  UNL1        0.1734
     24 O          21.8943   70.9027   -1.5252 O.3     1  UNL1       -0.2703
     25 P          22.6598   71.4725   -2.8222 P.3     1  UNL1        0.2208
     26 O          23.3343   72.8911   -2.4666 O.3     1  UNL1       -0.4371
     27 O          23.7110   70.5168   -3.2345 O.2     1  UNL1       -0.5170
     28 O          21.6070   71.6649   -4.0252 O.3     1  UNL1       -0.2865
     29 C          20.2496   72.0585   -3.8162 C.3     1  UNL1        0.2611
     30 C          19.3358   71.2570   -4.7465 C.3     1  UNL1        0.1582
     31 C          19.6944   71.5776   -6.2008 C.3     1  UNL1        0.1625
     32 C          19.5708   73.0872   -6.4250 C.3     1  UNL1        0.1686
     33 C          20.4757   73.8183   -5.4297 C.3     1  UNL1        0.1760
     34 O          18.7978   70.8898   -7.0762 O.3     1  UNL1       -0.3801
     35 O          18.2150   73.4905   -6.2239 O.3     1  UNL1       -0.3794
     36 O          20.1096   73.4526   -4.0978 O.3     1  UNL1       -0.3263
     37 H          18.9676   71.0469   -8.0152 H       1  UNL1        0.2105
     38 H          18.0629   74.4377   -6.3491 H       1  UNL1        0.2105
     39 C          18.6348   69.1498   -3.7435 C.2     1  UNL1        0.2231
     40 C          18.8255   67.6774   -3.4904 C.3     1  UNL1        0.0946
     41 N          19.5221   69.8248   -4.5006 N.am    1  UNL1       -0.2994
     42 O          17.6819   69.7293   -3.2655 O.2     1  UNL1       -0.2751
     43 H          20.2847   69.3621   -4.8821 H       1  UNL1        0.1496
     44 C          20.3128   75.3291   -5.6072 C.3     1  UNL1        0.1693
     45 O          21.5743   75.9083   -5.9472 O.3     1  UNL1       -0.3794
     46 H          21.5461   76.8663   -6.0751 H       1  UNL1        0.2105
@<TRIPOS>BOND
     1    29    30    1
     2    30    41    1
     3    30    31    1
     4    31    34    1
     5    31    32    1
     6    32    35    1
     7    32    33    1
     8    33    36    1
     9    33    44    1
    10    39    40    1
    11    39    42    2
    12    39    41   am
    13    41    43    1
    14    29    28    1
    15    34    37    1
    16    35    38    1
    17    29    36    1
    18    44    45    1
    19    45    46    1
    20    15     6    1
    21    15    16   ar
    22    16    21    2
    23    16    17   ar
    24    17    23    1
    25    17    18   ar
    26    18    19   ar
    27    19    20   ar
    28    15    20   ar
    29    18    22    2
    30     6     7    1
    31     6    11    1
    32     7     9    1
    33     7     8    1
    34     8    13    1
    35     9    10    1
    36     9    12    1
    37    10     5    1
    38    10    11    1
    39    12    14    1
    40     5     4    1
    41     4     1    1
    42     1     2    1
    43     1    24    1
    44     1     3    2
    45    24    25    1
    46    28    25    1
    47    25    26    1
    48    25    27    2
@<TRIPOS>MOLECULE
UD2
 46 48 0 0 0
SMALL
GASTEIGER

@<TRIPOS>ATOM
      1 P          22.8407   72.1898   -3.4403 P.3     1  UNL1        0.2189
      2 O          23.5580   70.8096   -3.0258 O.3     1  UNL1       -0.4371
      3 O          23.4639   72.7195   -4.6732 O.2     1  UNL1       -0.5170
      4 O          21.2743   71.9227   -3.7027 O.3     1  UNL1       -0.3112
      5 C          20.2727   72.1303   -2.7052 C.3     1  UNL1        0.1811
      6 C          17.9862   71.3241   -5.3619 C.3     1  UNL1        0.2383
      7 C          18.0459   70.0400   -4.4960 C.3     1  UNL1        0.1895
      8 O          16.8036   69.3355   -4.5420 O.3     1  UNL1       -0.3779
      9 C          18.3037   70.6135   -3.0811 C.3     1  UNL1        0.1713
     10 C          18.8862   72.0154   -3.3434 C.3     1  UNL1        0.1764
     11 O          18.9886   72.1767   -4.7671 O.3     1  UNL1       -0.3308
     12 O          17.0796   70.7086   -2.3508 O.3     1  UNL1       -0.3794
     13 H          16.7914   68.5243   -4.0162 H       1  UNL1        0.2106
     14 H          16.6389   69.8602   -2.2081 H       1  UNL1        0.2105
     15 N          18.3246   71.0232   -6.7547 N.ar    1  UNL1       -0.2551
     16 C          17.3448   70.7499   -7.6345 C.ar    1  UNL1        0.3323
     17 N          17.6269   70.4698   -8.9207 N.ar    1  UNL1       -0.2743
     18 C          18.9056   70.4610   -9.3487 C.ar    1  UNL1        0.2626
     19 C          19.9470   70.7479   -8.4336 C.ar    1  UNL1        0.0795
     20 C          19.6349   71.0295   -7.1511 C.ar    1  UNL1        0.0869
     21 O          16.1872   70.7544   -7.2626 O.2     1  UNL1       -0.2464
     22 O          19.1622   70.2080  -10.5126 O.2     1  UNL1       -0.2670
     23 H          16.9084   70.2738   -9.5416 H       1  UNL1        0.1734
     24 O          23.0096   73.2613   -2.2501 O.3     1  UNL1       -0.2703
     25 P          22.7794   74.8510   -2.1361 P.3     1  UNL1        0.2208
     26 O          21.8263   75.3423   -3.3377 O.3     1  UNL1       -0.4371
     27 O          22.1397   75.1654   -0.8398 O.2     1  UNL1       -0.5170
     28 O          24.1979   75.6068   -2.2324 O.3     1  UNL1       -0.2865
     29 C          25.4486   74.9418   -2.0452 C.3     1  UNL1        0.2611
     30 C          26.2927   75.7166   -1.0303 C.3     1  UNL1        0.1582
     31 C          26.5872   77.1138   -1.5849 C.3     1  UNL1        0.1625
     32 C          27.2887   76.9765   -2.9389 C.3     1  UNL1        0.1686
     33 C          26.4059   76.1530   -3.8805 C.3     1  UNL1        0.1760
     34 O          27.4364   77.8185   -0.6763 O.3     1  UNL1       -0.3801
     35 O          28.5439   76.3175   -2.7619 O.3     1  UNL1       -0.3794
     36 O          26.1445   74.8775   -3.2918 O.3     1  UNL1       -0.3263
     37 H          27.6634   78.7133   -0.9644 H       1  UNL1        0.2105
     38 H          29.0439   76.1956   -3.5811 H       1  UNL1        0.2105
     39 C          24.8091   76.9308    0.4738 C.2     1  UNL1        0.2231
     40 C          24.0506   77.0536    1.7693 C.3     1  UNL1        0.0946
     41 N          25.5554   75.8354    0.2301 N.am    1  UNL1       -0.2994
     42 O          24.7486   77.8184   -0.3512 O.2     1  UNL1       -0.2751
     43 H          25.6048   75.1260    0.8899 H       1  UNL1        0.1496
     44 C          27.1262   75.9606   -5.2164 C.3     1  UNL1        0.1693
     45 O          27.8128   74.7073   -5.2120 O.3     1  UNL1       -0.3794
     46 H          28.2929   74.5184   -6.0298 H       1  UNL1        0.2105
@<TRIPOS>BOND
     1    29    30    1
     2    30    41    1
     3    30    31    1
     4    31    34    1
     5    31    32    1
     6    32    35    1
     7    32    33    1
     8    33    36    1
     9    33    44    1
    10    39    40    1
    11    39    42    2
    12    39    41   am
    13    41    43    1
    14    29    28    1
    15    34    37    1
    16    35    38    1
    17    29    36    1
    18    44    45    1
    19    45    46    1
    20    15     6    1
    21    15    16   ar
    22    16    21    2
    23    16    17   ar
    24    17    23    1
    25    17    18   ar
    26    18    19   ar
    27    19    20   ar
    28    15    20   ar
    29    18    22    2
    30     6     7    1
    31     6    11    1
    32     7     9    1
    33     7     8    1
    34     8    13    1
    35     9    10    1
    36     9    12    1
    37    10     5    1
    38    10    11    1
    39    12    14    1
    40     5     4    1
    41     4     1    1
    42     1     2    1
    43     1    24    1
    44     1     3    2
    45    24    25    1
    46    28    25    1
    47    25    26    1
    48    25    27    2
@<TRIPOS>MOLECULE
UD2
 46 48 0 0 0
SMALL
GASTEIGER

@<TRIPOS>ATOM
      1 P          21.7640   71.3414   -0.3602 P.3     1  UNL1        0.2189
      2 O          21.3008   69.9274    0.2543 O.3     1  UNL1       -0.4371
      3 O          23.0329   71.1663   -1.1005 O.2     1  UNL1       -0.5170
      4 O          20.6286   71.8883   -1.3629 O.3     1  UNL1       -0.3112
      5 C          20.6707   71.6752   -2.7750 C.3     1  UNL1        0.1811
      6 C          18.1834   71.1864   -5.3267 C.3     1  UNL1        0.2383
      7 C          18.1682   69.8691   -4.5103 C.3     1  UNL1        0.1895
      8 O          16.8649   69.2833   -4.5115 O.3     1  UNL1       -0.3779
      9 C          18.5518   70.3604   -3.0930 C.3     1  UNL1        0.1713
     10 C          19.2481   71.7125   -3.3388 C.3     1  UNL1        0.1764
     11 O          19.2906   71.9198   -4.7596 O.3     1  UNL1       -0.3308
     12 O          17.3817   70.5379   -2.2929 O.3     1  UNL1       -0.3794
     13 H          16.8046   68.4565   -4.0141 H       1  UNL1        0.2106
     14 H          16.8718   69.7283   -2.1552 H       1  UNL1        0.2105
     15 N          18.4192   70.9111   -6.7458 N.ar    1  UNL1       -0.2551
     16 C          17.3737   70.7332   -7.5728 C.ar    1  UNL1        0.3323
     17 N          17.5609   70.4787   -8.8814 N.ar    1  UNL1       -0.2743
     18 C          18.8091   70.3998   -9.3857 C.ar    1  UNL1        0.2626
     19 C          19.9189   70.5861   -8.5267 C.ar    1  UNL1        0.0795
     20 C          19.7017   70.8441   -7.2199 C.ar    1  UNL1        0.0869
     21 O          16.2426   70.8018   -7.1319 O.2     1  UNL1       -0.2464
     22 O          18.9799   70.1699  -10.5699 O.2     1  UNL1       -0.2670
     23 H          16.7959   70.3518   -9.4635 H       1  UNL1        0.1734
     24 O          21.9804   72.4006    0.8334 O.3     1  UNL1       -0.2703
     25 P          22.1640   72.2663    2.4275 P.3     1  UNL1        0.2208
     26 O          20.7222   72.0740    3.1190 O.3     1  UNL1       -0.4371
     27 O          23.0154   71.0948    2.7293 O.2     1  UNL1       -0.5170
     28 O          22.8614   73.5993    3.0014 O.3     1  UNL1       -0.2865
     29 C          23.3982   73.6900    4.3224 C.3     1  UNL1        0.2611
     30 C          22.6475   74.7692    5.1063 C.3     1  UNL1        0.1582
     31 C          22.8595   76.1242    4.4240 C.3     1  UNL1        0.1625
     32 C          24.3612   76.4097    4.3356 C.3     1  UNL1        0.1686
     33 C          25.0460   75.2670    3.5812 C.3     1  UNL1        0.1760
     34 O          22.2228   77.1492    5.1903 O.3     1  UNL1       -0.3801
     35 O          24.9070   76.5081    5.6523 O.3     1  UNL1       -0.3794
     36 O          24.7839   74.0320    4.2506 O.3     1  UNL1       -0.3263
     37 H          22.3163   78.0356    4.8152 H       1  UNL1        0.2105
     38 H          25.8574   76.6877    5.6725 H       1  UNL1        0.2105
     39 C          20.6135   74.1483    6.2958 C.2     1  UNL1        0.2231
     40 C          19.1434   73.8216    6.3210 C.3     1  UNL1        0.0946
     41 N          21.2175   74.4513    5.1298 N.am    1  UNL1       -0.2994
     42 O          21.2549   74.1387    7.3257 O.2     1  UNL1       -0.2751
     43 H          20.7053   74.4582    4.3061 H       1  UNL1        0.1496
     44 C          26.5550   75.5151    3.5405 C.3     1  UNL1        0.1693
     45 O          26.8863   76.2483    2.3593 O.3     1  UNL1       -0.3794
     46 H          27.8292   76.4418    2.2674 H       1  UNL1        0.2105
@<TRIPOS>BOND
     1    29    30    1
     2    30    41    1
     3    30    31    1
     4    31    34    1
     5    31    32    1
     6    32    35    1
     7    32    33    1
     8    33    36    1
     9    33    44    1
    10    39    40    1
    11    39    42    2
    12    39    41   am
    13    41    43    1
    14    29    28    1
    15    34    37    1
    16    35    38    1
    17    29    36    1
    18    44    45    1
    19    45    46    1
    20    15     6    1
    21    15    16   ar
    22    16    21    2
    23    16    17   ar
    24    17    23    1
    25    17    18   ar
    26    18    19   ar
    27    19    20   ar
    28    15    20   ar
    29    18    22    2
    30     6     7    1
    31     6    11    1
    32     7     9    1
    33     7     8    1
    34     8    13    1
    35     9    10    1
    36     9    12    1
    37    10     5    1
    38    10    11    1
    39    12    14    1
    40     5     4    1
    41     4     1    1
    42     1     2    1
    43     1    24    1
    44     1     3    2
    45    24    25    1
    46    28    25    1
    47    25    26    1
    48    25    27    2
@<TRIPOS>MOLECULE
UD2
 46 48 0 0 0
SMALL
GASTEIGER

@<TRIPOS>ATOM
      1 P          21.1689   75.3769   -3.4574 P.3     1  UNL1        0.2189
      2 O          20.2143   76.1913   -2.4490 O.3     1  UNL1       -0.4371
      3 O          22.1175   76.3112   -4.1024 O.2     1  UNL1       -0.5170
      4 O          21.9895   74.2610   -2.6357 O.3     1  UNL1       -0.3112
      5 C          21.4391   73.5542   -1.5227 C.3     1  UNL1        0.1811
      6 C          23.1020   72.4443    1.4672 C.3     1  UNL1        0.2383
      7 C          22.2372   71.2346    1.0304 C.3     1  UNL1        0.1895
      8 O          22.8534   70.0030    1.4114 O.3     1  UNL1       -0.3779
      9 C          22.2169   71.3887   -0.5101 C.3     1  UNL1        0.1713
     10 C          22.5665   72.8707   -0.7450 C.3     1  UNL1        0.1764
     11 O          22.7128   73.4854    0.5451 O.3     1  UNL1       -0.3308
     12 O          23.1989   70.5417   -1.1092 O.3     1  UNL1       -0.3794
     13 H          22.3498   69.2168    1.1605 H       1  UNL1        0.2106
     14 H          23.0608   69.5995   -0.9431 H       1  UNL1        0.2105
     15 N          22.7893   72.8314    2.8447 N.ar    1  UNL1       -0.2551
     16 C          21.5998   72.4983    3.3768 C.ar    1  UNL1        0.3323
     17 N          21.2856   72.8411    4.6401 N.ar    1  UNL1       -0.2743
     18 C          22.1666   73.5270    5.3964 C.ar    1  UNL1        0.2626
     19 C          23.4228   73.8833    4.8493 C.ar    1  UNL1        0.0795
     20 C          23.7129   73.5229    3.5815 C.ar    1  UNL1        0.0869
     21 O          20.7958   71.8797    2.7065 O.2     1  UNL1       -0.2464
     22 O          21.8836   73.8375    6.5400 O.2     1  UNL1       -0.2670
     23 H          20.4231   72.5941    5.0078 H       1  UNL1        0.1734
     24 O          20.2709   74.6595   -4.5853 O.3     1  UNL1       -0.2703
     25 P          20.6081   73.7597   -5.8774 P.3     1  UNL1        0.2208
     26 O          20.8622   74.7179   -7.1467 O.3     1  UNL1       -0.4371
     27 O          21.8222   72.9559   -5.6160 O.2     1  UNL1       -0.5170
     28 O          19.3698   72.7776   -6.1853 O.3     1  UNL1       -0.2865
     29 C          19.4235   71.3662   -5.9701 C.3     1  UNL1        0.2611
     30 C          18.2985   70.6863   -6.7544 C.3     1  UNL1        0.1582
     31 C          16.9485   71.1857   -6.2304 C.3     1  UNL1        0.1625
     32 C          16.8606   70.9046   -4.7278 C.3     1  UNL1        0.1686
     33 C          18.0413   71.5763   -4.0215 C.3     1  UNL1        0.1760
     34 O          15.8914   70.5015   -6.9069 O.3     1  UNL1       -0.3801
     35 O          16.9077   69.4946   -4.5021 O.3     1  UNL1       -0.3794
     36 O          19.2652   71.0908   -4.5768 O.3     1  UNL1       -0.3263
     37 H          15.0061   70.7694   -6.6246 H       1  UNL1        0.2105
     38 H          16.8573   69.2431   -3.5693 H       1  UNL1        0.2105
     39 C          19.4473   70.5157   -8.8965 C.2     1  UNL1        0.2231
     40 C          19.5773   70.8545  -10.3583 C.3     1  UNL1        0.0946
     41 N          18.4244   71.0166   -8.1762 N.am    1  UNL1       -0.2994
     42 O          20.2639   69.7914   -8.3666 O.2     1  UNL1       -0.2751
     43 H          17.7719   71.5965   -8.5992 H       1  UNL1        0.1496
     44 C          17.9940   71.2505   -2.5275 C.3     1  UNL1        0.1693
     45 O          16.6358   71.2476   -2.0827 O.3     1  UNL1       -0.3794
     46 H          16.5298   71.0480   -1.1425 H       1  UNL1        0.2105
@<TRIPOS>BOND
     1    29    30    1
     2    30    41    1
     3    30    31    1
     4    31    34    1
     5    31    32    1
     6    32    35    1
     7    32    33    1
     8    33    36    1
     9    33    44    1
    10    39    40    1
    11    39    42    2
    12    39    41   am
    13    41    43    1
    14    29    28    1
    15    34    37    1
    16    35    38    1
    17    29    36    1
    18    44    45    1
    19    45    46    1
    20    15     6    1
    21    15    16   ar
    22    16    21    2
    23    16    17   ar
    24    17    23    1
    25    17    18   ar
    26    18    19   ar
    27    19    20   ar
    28    15    20   ar
    29    18    22    2
    30     6     7    1
    31     6    11    1
    32     7     9    1
    33     7     8    1
    34     8    13    1
    35     9    10    1
    36     9    12    1
    37    10     5    1
    38    10    11    1
    39    12    14    1
    40     5     4    1
    41     4     1    1
    42     1     2    1
    43     1    24    1
    44     1     3    2
    45    24    25    1
    46    28    25    1
    47    25    26    1
    48    25    27    2
@<TRIPOS>MOLECULE
UD2
 46 48 0 0 0
SMALL
GASTEIGER

@<TRIPOS>ATOM
      1 P          22.8574   72.0574   -3.3370 P.3     1  UNL1        0.2189
      2 O          23.4810   70.5826   -3.1710 O.3     1  UNL1       -0.4371
      3 O          23.5303   72.7553   -4.4546 O.2     1  UNL1       -0.5170
      4 O          21.2814   71.9416   -3.6476 O.3     1  UNL1       -0.3112
      5 C          20.2786   72.0743   -2.6385 C.3     1  UNL1        0.1811
      6 C          17.9845   71.3461   -5.3112 C.3     1  UNL1        0.2383
      7 C          18.0039   70.0563   -4.4521 C.3     1  UNL1        0.1895
      8 O          16.7427   69.3870   -4.5082 O.3     1  UNL1       -0.3779
      9 C          18.2701   70.6149   -3.0327 C.3     1  UNL1        0.1713
     10 C          18.8928   72.0014   -3.2844 C.3     1  UNL1        0.1764
     11 O          19.0072   72.1673   -4.7067 O.3     1  UNL1       -0.3308
     12 O          17.0453   70.7403   -2.3082 O.3     1  UNL1       -0.3794
     13 H          16.7052   68.5737   -3.9869 H       1  UNL1        0.2106
     14 H          16.5804   69.9037   -2.1723 H       1  UNL1        0.2105
     15 N          18.3218   71.0433   -6.7039 N.ar    1  UNL1       -0.2551
     16 C          17.3405   70.7805   -7.5852 C.ar    1  UNL1        0.3323
     17 N          17.6214   70.4988   -8.8713 N.ar    1  UNL1       -0.2743
     18 C          18.9006   70.4780   -9.2977 C.ar    1  UNL1        0.2626
     19 C          19.9435   70.7538   -8.3810 C.ar    1  UNL1        0.0795
     20 C          19.6326   71.0371   -7.0986 C.ar    1  UNL1        0.0869
     21 O          16.1825   70.7960   -7.2148 O.2     1  UNL1       -0.2464
     22 O          19.1562   70.2236  -10.4615 O.2     1  UNL1       -0.2670
     23 H          16.9019   70.3104   -9.4933 H       1  UNL1        0.1734
     24 O          23.0756   72.8890   -1.9753 O.3     1  UNL1       -0.2703
     25 P          23.0162   74.4537   -1.5994 P.3     1  UNL1        0.2208
     26 O          22.0075   75.2083   -2.6028 O.3     1  UNL1       -0.4371
     27 O          22.5359   74.6093   -0.2089 O.2     1  UNL1       -0.5170
     28 O          24.4873   75.0942   -1.7344 O.3     1  UNL1       -0.2865
     29 C          24.7965   76.4275   -1.3244 C.3     1  UNL1        0.2611
     30 C          25.4269   77.1885   -2.4932 C.3     1  UNL1        0.1582
     31 C          26.7408   76.5063   -2.8861 C.3     1  UNL1        0.1625
     32 C          27.6615   76.4534   -1.6638 C.3     1  UNL1        0.1686
     33 C          26.9448   75.7204   -0.5267 C.3     1  UNL1        0.1760
     34 O          27.3731   77.2528   -3.9283 O.3     1  UNL1       -0.3801
     35 O          27.9816   77.7826   -1.2490 O.3     1  UNL1       -0.3794
     36 O          25.7164   76.3881   -0.2315 O.3     1  UNL1       -0.3263
     37 H          28.2122   76.8766   -4.2276 H       1  UNL1        0.2105
     38 H          28.5628   77.8252   -0.4768 H       1  UNL1        0.2105
     39 C          24.6301   76.2338   -4.5888 C.2     1  UNL1        0.2231
     40 C          23.6871   76.2227   -5.7632 C.3     1  UNL1        0.0946
     41 N          24.5093   77.1786   -3.6354 N.am    1  UNL1       -0.2994
     42 O          25.4994   75.3919   -4.5006 O.2     1  UNL1       -0.2751
     43 H          23.8151   77.8524   -3.7060 H       1  UNL1        0.1496
     44 C          27.8349   75.7155    0.7175 C.3     1  UNL1        0.1693
     45 O          27.5291   76.8526    1.5273 O.3     1  UNL1       -0.3794
     46 H          28.0568   76.9142    2.3352 H       1  UNL1        0.2105
@<TRIPOS>BOND
     1    29    30    1
     2    30    41    1
     3    30    31    1
     4    31    34    1
     5    31    32    1
     6    32    35    1
     7    32    33    1
     8    33    36    1
     9    33    44    1
    10    39    40    1
    11    39    42    2
    12    39    41   am
    13    41    43    1
    14    29    28    1
    15    34    37    1
    16    35    38    1
    17    29    36    1
    18    44    45    1
    19    45    46    1
    20    15     6    1
    21    15    16   ar
    22    16    21    2
    23    16    17   ar
    24    17    23    1
    25    17    18   ar
    26    18    19   ar
    27    19    20   ar
    28    15    20   ar
    29    18    22    2
    30     6     7    1
    31     6    11    1
    32     7     9    1
    33     7     8    1
    34     8    13    1
    35     9    10    1
    36     9    12    1
    37    10     5    1
    38    10    11    1
    39    12    14    1
    40     5     4    1
    41     4     1    1
    42     1     2    1
    43     1    24    1
    44     1     3    2
    45    24    25    1
    46    28    25    1
    47    25    26    1
    48    25    27    2
@<TRIPOS>MOLECULE
UD2
 46 48 0 0 0
SMALL
GASTEIGER

@<TRIPOS>ATOM
      1 P          22.2869   70.5815   -0.1823 P.3     1  UNL1        0.2189
      2 O          23.7470   69.9065   -0.2437 O.3     1  UNL1       -0.4371
      3 O          21.2925   69.5701    0.2387 O.2     1  UNL1       -0.5170
      4 O          22.3007   71.7943    0.8773 O.3     1  UNL1       -0.3112
      5 C          21.1941   72.6795    1.0597 C.3     1  UNL1        0.1811
      6 C          22.7734   75.6210    2.3975 C.3     1  UNL1        0.2383
      7 C          23.9107   74.8689    1.6608 C.3     1  UNL1        0.1895
      8 O          24.8770   75.7858    1.1435 O.3     1  UNL1       -0.3779
      9 C          23.1457   74.1665    0.5124 C.3     1  UNL1        0.1713
     10 C          21.6852   74.1281    1.0013 C.3     1  UNL1        0.1764
     11 O          21.6587   74.7064    2.3160 O.3     1  UNL1       -0.3308
     12 O          23.2500   74.9248   -0.6937 O.3     1  UNL1       -0.3794
     13 H          25.6089   75.3631    0.6743 H       1  UNL1        0.2106
     14 H          24.1555   75.0312   -1.0152 H       1  UNL1        0.2105
     15 N          23.1381   75.8671    3.7945 N.ar    1  UNL1       -0.2551
     16 C          23.9231   74.9884    4.4430 C.ar    1  UNL1        0.3323
     17 N          24.2740   75.1892    5.7270 N.ar    1  UNL1       -0.2743
     18 C          23.8414   76.2835    6.3857 C.ar    1  UNL1        0.2626
     19 C          23.0154   77.2173    5.7150 C.ar    1  UNL1        0.0795
     20 C          22.6828   76.9929    4.4264 C.ar    1  UNL1        0.0869
     21 O          24.3206   73.9973    3.8615 O.2     1  UNL1       -0.2464
     22 O          24.1586   76.4666    7.5478 O.2     1  UNL1       -0.2670
     23 H          24.8396   74.5450    6.1801 H       1  UNL1        0.1734
     24 O          21.8948   71.1465   -1.6385 O.3     1  UNL1       -0.2703
     25 P          22.7329   71.4699   -2.9749 P.3     1  UNL1        0.2208
     26 O          23.5247   72.8598   -2.7880 O.3     1  UNL1       -0.4371
     27 O          23.7019   70.3806   -3.2255 O.2     1  UNL1       -0.5170
     28 O          21.7247   71.5900   -4.2246 O.3     1  UNL1       -0.2865
     29 C          20.8763   72.7203   -4.4345 C.3     1  UNL1        0.2611
     30 C          19.4615   72.2423   -4.7697 C.3     1  UNL1        0.1582
     31 C          19.4985   71.4399   -6.0740 C.3     1  UNL1        0.1625
     32 C          20.0936   72.3136   -7.1816 C.3     1  UNL1        0.1686
     33 C          21.4845   72.7889   -6.7533 C.3     1  UNL1        0.1760
     34 O          18.1705   71.0518   -6.4334 O.3     1  UNL1       -0.3801
     35 O          19.2492   73.4445   -7.4035 O.3     1  UNL1       -0.3794
     36 O          21.3835   73.5011   -5.5186 O.3     1  UNL1       -0.3263
     37 H          18.1190   70.5384   -7.2513 H       1  UNL1        0.2105
     38 H          19.5664   74.0437   -8.0937 H       1  UNL1        0.2105
     39 C          19.1609   70.0598   -3.7284 C.2     1  UNL1        0.2231
     40 C          18.6485   69.1852   -2.6143 C.3     1  UNL1        0.0946
     41 N          18.9626   71.3921   -3.6858 N.am    1  UNL1       -0.2994
     42 O          19.7526   69.5651   -4.6650 O.2     1  UNL1       -0.2751
     43 H          18.4887   71.7879   -2.9376 H       1  UNL1        0.1496
     44 C          22.0616   73.7113   -7.8288 C.3     1  UNL1        0.1693
     45 O          23.1466   74.4628   -7.2808 O.3     1  UNL1       -0.3794
     46 H          23.5615   75.0703   -7.9083 H       1  UNL1        0.2105
@<TRIPOS>BOND
     1    29    30    1
     2    30    41    1
     3    30    31    1
     4    31    34    1
     5    31    32    1
     6    32    35    1
     7    32    33    1
     8    33    36    1
     9    33    44    1
    10    39    40    1
    11    39    42    2
    12    39    41   am
    13    41    43    1
    14    29    28    1
    15    34    37    1
    16    35    38    1
    17    29    36    1
    18    44    45    1
    19    45    46    1
    20    15     6    1
    21    15    16   ar
    22    16    21    2
    23    16    17   ar
    24    17    23    1
    25    17    18   ar
    26    18    19   ar
    27    19    20   ar
    28    15    20   ar
    29    18    22    2
    30     6     7    1
    31     6    11    1
    32     7     9    1
    33     7     8    1
    34     8    13    1
    35     9    10    1
    36     9    12    1
    37    10     5    1
    38    10    11    1
    39    12    14    1
    40     5     4    1
    41     4     1    1
    42     1     2    1
    43     1    24    1
    44     1     3    2
    45    24    25    1
    46    28    25    1
    47    25    26    1
    48    25    27    2
@<TRIPOS>MOLECULE
UD2
 46 48 0 0 0
SMALL
GASTEIGER

@<TRIPOS>ATOM
      1 P          21.8015   71.4695   -0.3857 P.3     1  UNL1        0.2189
      2 O          21.2885   71.4447    1.1400 O.3     1  UNL1       -0.4371
      3 O          22.2674   70.1195   -0.7721 O.2     1  UNL1       -0.5170
      4 O          20.5924   71.9168   -1.3510 O.3     1  UNL1       -0.3112
      5 C          20.6410   71.7790   -2.7723 C.3     1  UNL1        0.1811
      6 C          18.1626   71.2152   -5.3171 C.3     1  UNL1        0.2383
      7 C          18.1846   69.9006   -4.4965 C.3     1  UNL1        0.1895
      8 O          16.8975   69.2799   -4.4930 O.3     1  UNL1       -0.3779
      9 C          18.5577   70.4066   -3.0815 C.3     1  UNL1        0.1713
     10 C          19.2168   71.7762   -3.3331 C.3     1  UNL1        0.1764
     11 O          19.2509   71.9800   -4.7547 O.3     1  UNL1       -0.3308
     12 O          17.3849   70.5552   -2.2795 O.3     1  UNL1       -0.3794
     13 H          16.8605   68.4534   -3.9928 H       1  UNL1        0.2106
     14 H          16.8973   69.7326   -2.1382 H       1  UNL1        0.2105
     15 N          18.4029   70.9418   -6.7358 N.ar    1  UNL1       -0.2551
     16 C          17.3598   70.7738   -7.5680 C.ar    1  UNL1        0.3323
     17 N          17.5511   70.5212   -8.8764 N.ar    1  UNL1       -0.2743
     18 C          18.8010   70.4342   -9.3752 C.ar    1  UNL1        0.2626
     19 C          19.9082   70.6099   -8.5107 C.ar    1  UNL1        0.0795
     20 C          19.6870   70.8663   -7.2042 C.ar    1  UNL1        0.0869
     21 O          16.2273   70.8497   -7.1322 O.2     1  UNL1       -0.2464
     22 O          18.9755   70.2061  -10.5592 O.2     1  UNL1       -0.2670
     23 H          16.7879   70.4015   -9.4624 H       1  UNL1        0.1734
     24 O          23.0159   72.5176   -0.5269 O.3     1  UNL1       -0.2703
     25 P          23.1062   74.1247   -0.5702 P.3     1  UNL1        0.2208
     26 O          21.9053   74.7528    0.2999 O.3     1  UNL1       -0.4371
     27 O          24.4028   74.5616   -0.0079 O.2     1  UNL1       -0.5170
     28 O          22.9850   74.6281   -2.0949 O.3     1  UNL1       -0.2865
     29 C          23.9909   74.3802   -3.0788 C.3     1  UNL1        0.2611
     30 C          24.6316   75.7049   -3.4999 C.3     1  UNL1        0.1582
     31 C          23.5643   76.5974   -4.1406 C.3     1  UNL1        0.1625
     32 C          22.9358   75.8549   -5.3230 C.3     1  UNL1        0.1686
     33 C          22.3602   74.5241   -4.8315 C.3     1  UNL1        0.1760
     34 O          24.1689   77.8073   -4.6032 O.3     1  UNL1       -0.3801
     35 O          23.9329   75.6071   -6.3158 O.3     1  UNL1       -0.3794
     36 O          23.3976   73.7555   -4.2190 O.3     1  UNL1       -0.3263
     37 H          23.5494   78.4215   -5.0205 H       1  UNL1        0.2105
     38 H          23.6044   75.1378   -7.0955 H       1  UNL1        0.2105
     39 C          26.5218   76.4054   -2.1309 C.2     1  UNL1        0.2231
     40 C          27.0947   77.0948   -0.9204 C.3     1  UNL1        0.0946
     41 N          25.1881   76.3754   -2.3221 N.am    1  UNL1       -0.2994
     42 O          27.2610   75.8765   -2.9346 O.2     1  UNL1       -0.2751
     43 H          24.5967   76.7973   -1.6793 H       1  UNL1        0.1496
     44 C          21.7833   73.7491   -6.0176 C.3     1  UNL1        0.1693
     45 O          22.7375   72.7848   -6.4670 O.3     1  UNL1       -0.3794
     46 H          22.4383   72.2556   -7.2190 H       1  UNL1        0.2105
@<TRIPOS>BOND
     1    29    30    1
     2    30    41    1
     3    30    31    1
     4    31    34    1
     5    31    32    1
     6    32    35    1
     7    32    33    1
     8    33    36    1
     9    33    44    1
    10    39    40    1
    11    39    42    2
    12    39    41   am
    13    41    43    1
    14    29    28    1
    15    34    37    1
    16    35    38    1
    17    29    36    1
    18    44    45    1
    19    45    46    1
    20    15     6    1
    21    15    16   ar
    22    16    21    2
    23    16    17   ar
    24    17    23    1
    25    17    18   ar
    26    18    19   ar
    27    19    20   ar
    28    15    20   ar
    29    18    22    2
    30     6     7    1
    31     6    11    1
    32     7     9    1
    33     7     8    1
    34     8    13    1
    35     9    10    1
    36     9    12    1
    37    10     5    1
    38    10    11    1
    39    12    14    1
    40     5     4    1
    41     4     1    1
    42     1     2    1
    43     1    24    1
    44     1     3    2
    45    24    25    1
    46    28    25    1
    47    25    26    1
    48    25    27    2
@<TRIPOS>MOLECULE
UD2
 46 48 0 0 0
SMALL
GASTEIGER

@<TRIPOS>ATOM
      1 P          22.7801   72.0031   -3.2879 P.3     1  UNL1        0.2189
      2 O          23.9208   73.0804   -3.6478 O.3     1  UNL1       -0.4371
      3 O          23.3790   70.6517   -3.2256 O.2     1  UNL1       -0.5170
      4 O          22.1287   72.3678   -1.8609 O.3     1  UNL1       -0.3112
      5 C          22.6973   73.3295   -0.9701 C.3     1  UNL1        0.1811
      6 C          22.6551   73.3605    2.6262 C.3     1  UNL1        0.2383
      7 C          21.2417   72.8680    2.2242 C.3     1  UNL1        0.1895
      8 O          20.7135   71.9758    3.2074 O.3     1  UNL1       -0.3779
      9 C          21.5223   72.1230    0.8962 C.3     1  UNL1        0.1713
     10 C          22.8665   72.7027    0.4160 C.3     1  UNL1        0.1764
     11 O          23.2611   73.7087    1.3624 O.3     1  UNL1       -0.3308
     12 O          21.6370   70.7179    1.1271 O.3     1  UNL1       -0.3794
     13 H          19.8304   71.6408    3.0011 H       1  UNL1        0.2106
     14 H          20.8371   70.3109    1.4862 H       1  UNL1        0.2105
     15 N          22.5640   74.5352    3.4962 N.ar    1  UNL1       -0.2551
     16 C          21.5588   75.4127    3.3278 C.ar    1  UNL1        0.3323
     17 N          21.4506   76.5010    4.1127 N.ar    1  UNL1       -0.2743
     18 C          22.3544   76.7274    5.0876 C.ar    1  UNL1        0.2626
     19 C          23.4170   75.8114    5.2766 C.ar    1  UNL1        0.0795
     20 C          23.4987   74.7265    4.4779 C.ar    1  UNL1        0.0869
     21 O          20.7365   75.2212    2.4529 O.2     1  UNL1       -0.2464
     22 O          22.2573   77.7119    5.7989 O.2     1  UNL1       -0.2670
     23 H          20.7203   77.1243    3.9770 H       1  UNL1        0.1734
     24 O          21.6371   72.0322   -4.4219 O.3     1  UNL1       -0.2703
     25 P          20.4662   73.0700   -4.8025 P.3     1  UNL1        0.2208
     26 O          19.2980   72.9894   -3.6968 O.3     1  UNL1       -0.4371
     27 O          21.0161   74.4428   -4.8391 O.2     1  UNL1       -0.5170
     28 O          19.8646   72.6937   -6.2479 O.3     1  UNL1       -0.2865
     29 C          20.0977   71.4362   -6.8848 C.3     1  UNL1        0.2611
     30 C          20.2097   71.6422   -8.3973 C.3     1  UNL1        0.1582
     31 C          18.8829   72.1935   -8.9284 C.3     1  UNL1        0.1625
     32 C          17.7552   71.2271   -8.5561 C.3     1  UNL1        0.1686
     33 C          17.7378   71.0371   -7.0370 C.3     1  UNL1        0.1760
     34 O          18.9537   72.3198  -10.3505 O.3     1  UNL1       -0.3801
     35 O          17.9760   69.9674   -9.1930 O.3     1  UNL1       -0.3794
     36 O          19.0105   70.5520   -6.6047 O.3     1  UNL1       -0.3263
     37 H          18.1460   72.6650  -10.7550 H       1  UNL1        0.2105
     38 H          17.2983   69.3043   -9.0003 H       1  UNL1        0.2105
     39 C          21.0129   73.9115   -8.7749 C.2     1  UNL1        0.2231
     40 C          22.1182   74.8917   -9.0685 C.3     1  UNL1        0.0946
     41 N          21.2854   72.5949   -8.6831 N.am    1  UNL1       -0.2994
     42 O          19.8762   74.3070   -8.6210 O.2     1  UNL1       -0.2751
     43 H          22.1938   72.2782   -8.8071 H       1  UNL1        0.1496
     44 C          16.6522   70.0266   -6.6620 C.3     1  UNL1        0.1693
     45 O          16.7869   69.6708   -5.2845 O.3     1  UNL1       -0.3794
     46 H          16.1298   69.0317   -4.9767 H       1  UNL1        0.2105
@<TRIPOS>BOND
     1    29    30    1
     2    30    41    1
     3    30    31    1
     4    31    34    1
     5    31    32    1
     6    32    35    1
     7    32    33    1
     8    33    36    1
     9    33    44    1
    10    39    40    1
    11    39    42    2
    12    39    41   am
    13    41    43    1
    14    29    28    1
    15    34    37    1
    16    35    38    1
    17    29    36    1
    18    44    45    1
    19    45    46    1
    20    15     6    1
    21    15    16   ar
    22    16    21    2
    23    16    17   ar
    24    17    23    1
    25    17    18   ar
    26    18    19   ar
    27    19    20   ar
    28    15    20   ar
    29    18    22    2
    30     6     7    1
    31     6    11    1
    32     7     9    1
    33     7     8    1
    34     8    13    1
    35     9    10    1
    36     9    12    1
    37    10     5    1
    38    10    11    1
    39    12    14    1
    40     5     4    1
    41     4     1    1
    42     1     2    1
    43     1    24    1
    44     1     3    2
    45    24    25    1
    46    28    25    1
    47    25    26    1
    48    25    27    2
@<TRIPOS>MOLECULE
UD2
 46 48 0 0 0
SMALL
GASTEIGER

@<TRIPOS>ATOM
      1 P          22.5826   71.7909   -3.2413 P.3     1  UNL1        0.2189
      2 O          23.5665   70.5363   -3.0195 O.3     1  UNL1       -0.4371
      3 O          21.1922   71.3884   -2.9355 O.2     1  UNL1       -0.5170
      4 O          23.0199   72.9948   -2.2650 O.3     1  UNL1       -0.3112
      5 C          22.2064   73.4529   -1.1835 C.3     1  UNL1        0.1811
      6 C          22.8020   73.1482    2.3505 C.3     1  UNL1        0.2383
      7 C          21.3113   72.7636    2.1720 C.3     1  UNL1        0.1895
      8 O          20.9092   71.8093    3.1566 O.3     1  UNL1       -0.3779
      9 C          21.3049   72.1340    0.7575 C.3     1  UNL1        0.1713
     10 C          22.5774   72.6914    0.0915 C.3     1  UNL1        0.1764
     11 O          23.1962   73.5842    1.0314 O.3     1  UNL1       -0.3308
     12 O          21.3687   70.7095    0.8452 O.3     1  UNL1       -0.3794
     13 H          19.9840   71.5377    3.0868 H       1  UNL1        0.2106
     14 H          20.6205   70.3093    1.3083 H       1  UNL1        0.2105
     15 N          22.9410   74.2391    3.3178 N.ar    1  UNL1       -0.2551
     16 C          21.9987   75.1965    3.3825 C.ar    1  UNL1        0.3323
     17 N          22.1008   76.2109    4.2617 N.ar    1  UNL1       -0.2743
     18 C          23.1567   76.2808    5.0976 C.ar    1  UNL1        0.2626
     19 C          24.1555   75.2792    5.0411 C.ar    1  UNL1        0.0795
     20 C          24.0254   74.2714    4.1528 C.ar    1  UNL1        0.0869
     21 O          21.0411   75.1461    2.6350 O.2     1  UNL1       -0.2464
     22 O          23.2501   77.1981    5.8941 O.2     1  UNL1       -0.2670
     23 H          21.4130   76.8935    4.2943 H       1  UNL1        0.1734
     24 O          22.6752   72.2819   -4.7722 O.3     1  UNL1       -0.2703
     25 P          21.6913   73.1086   -5.7425 P.3     1  UNL1        0.2208
     26 O          21.3495   74.5326   -5.0724 O.3     1  UNL1       -0.4371
     27 O          22.3525   73.3246   -7.0481 O.2     1  UNL1       -0.5170
     28 O          20.3299   72.2771   -5.9609 O.3     1  UNL1       -0.2865
     29 C          19.1165   72.8766   -6.4187 C.3     1  UNL1        0.2611
     30 C          17.9223   72.0618   -5.9160 C.3     1  UNL1        0.1582
     31 C          17.9945   70.6496   -6.5051 C.3     1  UNL1        0.1625
     32 C          18.0293   70.7466   -8.0328 C.3     1  UNL1        0.1686
     33 C          19.2197   71.6123   -8.4540 C.3     1  UNL1        0.1760
     34 O          16.8441   69.9042   -6.0999 O.3     1  UNL1       -0.3801
     35 O          16.8170   71.3400   -8.5015 O.3     1  UNL1       -0.3794
     36 O          19.1074   72.9013   -7.8475 O.3     1  UNL1       -0.3263
     37 H          16.8244   68.9980   -6.4371 H       1  UNL1        0.2105
     38 H          16.7703   71.4334   -9.4633 H       1  UNL1        0.2105
     39 C          16.8182   72.0245   -3.7441 C.2     1  UNL1        0.2231
     40 C          16.8594   71.9452   -2.2406 C.3     1  UNL1        0.0946
     41 N          17.9633   71.9849   -4.4535 N.am    1  UNL1       -0.2994
     42 O          15.7535   72.1241   -4.3175 O.2     1  UNL1       -0.2751
     43 H          18.8147   71.9062   -3.9954 H       1  UNL1        0.1496
     44 C          19.2268   71.7634   -9.9763 C.3     1  UNL1        0.1693
     45 O          18.3762   72.8485  -10.3521 O.3     1  UNL1       -0.3794
     46 H          18.3322   73.0026  -11.3057 H       1  UNL1        0.2105
@<TRIPOS>BOND
     1    29    30    1
     2    30    41    1
     3    30    31    1
     4    31    34    1
     5    31    32    1
     6    32    35    1
     7    32    33    1
     8    33    36    1
     9    33    44    1
    10    39    40    1
    11    39    42    2
    12    39    41   am
    13    41    43    1
    14    29    28    1
    15    34    37    1
    16    35    38    1
    17    29    36    1
    18    44    45    1
    19    45    46    1
    20    15     6    1
    21    15    16   ar
    22    16    21    2
    23    16    17   ar
    24    17    23    1
    25    17    18   ar
    26    18    19   ar
    27    19    20   ar
    28    15    20   ar
    29    18    22    2
    30     6     7    1
    31     6    11    1
    32     7     9    1
    33     7     8    1
    34     8    13    1
    35     9    10    1
    36     9    12    1
    37    10     5    1
    38    10    11    1
    39    12    14    1
    40     5     4    1
    41     4     1    1
    42     1     2    1
    43     1    24    1
    44     1     3    2
    45    24    25    1
    46    28    25    1
    47    25    26    1
    48    25    27    2
@<TRIPOS>MOLECULE
UD2
 46 48 0 0 0
SMALL
GASTEIGER

@<TRIPOS>ATOM
      1 P          21.8539   70.6243   -0.4256 P.3     1  UNL1        0.2189
      2 O          21.6421   69.4384    0.6422 O.3     1  UNL1       -0.4371
      3 O          22.9693   70.2779   -1.3338 O.2     1  UNL1       -0.5170
      4 O          20.5049   70.8212   -1.2831 O.3     1  UNL1       -0.3112
      5 C          20.3246   71.8905   -2.2135 C.3     1  UNL1        0.1811
      6 C          20.7904   72.1027   -5.7737 C.3     1  UNL1        0.2383
      7 C          21.7713   73.1507   -5.1891 C.3     1  UNL1        0.1895
      8 O          22.9242   73.2903   -6.0218 O.3     1  UNL1       -0.3779
      9 C          22.1475   72.5194   -3.8263 C.3     1  UNL1        0.1713
     10 C          21.0004   71.5318   -3.5393 C.3     1  UNL1        0.1764
     11 O          20.0566   71.6478   -4.6160 O.3     1  UNL1       -0.3308
     12 O          23.3925   71.8258   -3.9244 O.3     1  UNL1       -0.3794
     13 H          23.5675   73.9354   -5.6983 H       1  UNL1        0.2106
     14 H          24.1405   72.3903   -4.1616 H       1  UNL1        0.2105
     15 N          19.8883   72.7259   -6.7446 N.ar    1  UNL1       -0.2551
     16 C          19.5927   72.0826   -7.8881 C.ar    1  UNL1        0.3323
     17 N          18.7668   72.6316   -8.7984 N.ar    1  UNL1       -0.2743
     18 C          18.2185   73.8431   -8.5739 C.ar    1  UNL1        0.2626
     19 C          18.5201   74.5311   -7.3740 C.ar    1  UNL1        0.0795
     20 C          19.3479   73.9550   -6.4772 C.ar    1  UNL1        0.0869
     21 O          20.0797   70.9895   -8.1037 O.2     1  UNL1       -0.2464
     22 O          17.4705   74.3409   -9.3968 O.2     1  UNL1       -0.2670
     23 H          18.5652   72.1547   -9.6182 H       1  UNL1        0.1734
     24 O          22.1991   71.9916    0.3519 O.3     1  UNL1       -0.2703
     25 P          21.6200   72.7013    1.6762 P.3     1  UNL1        0.2208
     26 O          20.5362   73.8163    1.2566 O.3     1  UNL1       -0.4371
     27 O          20.9746   71.6868    2.5379 O.2     1  UNL1       -0.5170
     28 O          22.8262   73.4010    2.4812 O.3     1  UNL1       -0.2865
     29 C          22.7864   74.7615    2.9156 C.3     1  UNL1        0.2611
     30 C          24.1980   75.2205    3.2888 C.3     1  UNL1        0.1582
     31 C          24.7084   74.3736    4.4587 C.3     1  UNL1        0.1625
     32 C          23.7294   74.4969    5.6295 C.3     1  UNL1        0.1686
     33 C          22.3354   74.0655    5.1658 C.3     1  UNL1        0.1760
     34 O          25.9967   74.8437    4.8619 O.3     1  UNL1       -0.3801
     35 O          23.6864   75.8536    6.0754 O.3     1  UNL1       -0.3794
     36 O          21.9334   74.8720    4.0568 O.3     1  UNL1       -0.3263
     37 H          26.3814   74.3512    5.5998 H       1  UNL1        0.2105
     38 H          23.0840   76.0057    6.8169 H       1  UNL1        0.2105
     39 C          26.0062   75.9956    1.8509 C.2     1  UNL1        0.2231
     40 C          26.9216   75.8227    0.6674 C.3     1  UNL1        0.0946
     41 N          25.0879   75.0517    2.1373 N.am    1  UNL1       -0.2994
     42 O          26.0951   76.9852    2.5473 O.2     1  UNL1       -0.2751
     43 H          25.0158   74.2609    1.5802 H       1  UNL1        0.1496
     44 C          21.3392   74.2425    6.3133 C.3     1  UNL1        0.1693
     45 O          20.1640   73.4739    6.0475 O.3     1  UNL1       -0.3794
     46 H          19.4872   73.5387    6.7351 H       1  UNL1        0.2105
@<TRIPOS>BOND
     1    29    30    1
     2    30    41    1
     3    30    31    1
     4    31    34    1
     5    31    32    1
     6    32    35    1
     7    32    33    1
     8    33    36    1
     9    33    44    1
    10    39    40    1
    11    39    42    2
    12    39    41   am
    13    41    43    1
    14    29    28    1
    15    34    37    1
    16    35    38    1
    17    29    36    1
    18    44    45    1
    19    45    46    1
    20    15     6    1
    21    15    16   ar
    22    16    21    2
    23    16    17   ar
    24    17    23    1
    25    17    18   ar
    26    18    19   ar
    27    19    20   ar
    28    15    20   ar
    29    18    22    2
    30     6     7    1
    31     6    11    1
    32     7     9    1
    33     7     8    1
    34     8    13    1
    35     9    10    1
    36     9    12    1
    37    10     5    1
    38    10    11    1
    39    12    14    1
    40     5     4    1
    41     4     1    1
    42     1     2    1
    43     1    24    1
    44     1     3    2
    45    24    25    1
    46    28    25    1
    47    25    26    1
    48    25    27    2
@<TRIPOS>MOLECULE
UD2
 46 48 0 0 0
SMALL
GASTEIGER

@<TRIPOS>ATOM
      1 P          21.8758   70.8034   -2.6926 P.3     1  UNL1        0.2189
      2 O          23.3835   70.6922   -3.2457 O.3     1  UNL1       -0.4371
      3 O          21.2548   69.4606   -2.6780 O.2     1  UNL1       -0.5170
      4 O          21.8956   71.4019   -1.1976 O.3     1  UNL1       -0.3112
      5 C          22.0435   72.7957   -0.9204 C.3     1  UNL1        0.1811
      6 C          22.4093   74.0399    2.4344 C.3     1  UNL1        0.2383
      7 C          21.8022   75.2260    1.6429 C.3     1  UNL1        0.1895
      8 O          20.9778   76.0331    2.4860 O.3     1  UNL1       -0.3779
      9 C          20.9529   74.5007    0.5705 C.3     1  UNL1        0.1713
     10 C          21.5601   73.0864    0.5026 C.3     1  UNL1        0.1764
     11 O          22.6712   73.0536    1.4125 O.3     1  UNL1       -0.3308
     12 O          19.5844   74.4391    0.9757 O.3     1  UNL1       -0.3794
     13 H          20.5756   76.7886    2.0365 H       1  UNL1        0.2106
     14 H          19.1684   75.3039    1.0916 H       1  UNL1        0.2105
     15 N          23.6534   74.4428    3.0939 N.ar    1  UNL1       -0.2551
     16 C          23.8820   74.0750    4.3672 C.ar    1  UNL1        0.3323
     17 N          25.0166   74.4313    4.9982 N.ar    1  UNL1       -0.2743
     18 C          25.9478   75.1661    4.3569 C.ar    1  UNL1        0.2626
     19 C          25.7207   75.5593    3.0160 C.ar    1  UNL1        0.0795
     20 C          24.5763   75.1844    2.4067 C.ar    1  UNL1        0.0869
     21 O          23.0512   73.4122    4.9578 O.2     1  UNL1       -0.2464
     22 O          26.9753   75.4889    4.9267 O.2     1  UNL1       -0.2670
     23 H          25.1650   74.1588    5.9168 H       1  UNL1        0.1734
     24 O          21.0234   71.7789   -3.6492 O.3     1  UNL1       -0.2703
     25 P          19.4850   72.2536   -3.6761 P.3     1  UNL1        0.2208
     26 O          18.6350   71.3771   -2.6259 O.3     1  UNL1       -0.4371
     27 O          19.4030   73.6832   -3.3048 O.2     1  UNL1       -0.5170
     28 O          18.8857   72.0480   -5.1564 O.3     1  UNL1       -0.2865
     29 C          18.9717   73.0447   -6.1764 C.3     1  UNL1        0.2611
     30 C          17.5848   73.2800   -6.7795 C.3     1  UNL1        0.1582
     31 C          17.0961   71.9846   -7.4350 C.3     1  UNL1        0.1625
     32 C          18.1178   71.5395   -8.4850 C.3     1  UNL1        0.1686
     33 C          19.4845   71.3713   -7.8160 C.3     1  UNL1        0.1760
     34 O          15.8337   72.2151   -8.0646 O.3     1  UNL1       -0.3801
     35 O          18.2071   72.5274   -9.5133 O.3     1  UNL1       -0.3794
     36 O          19.8662   72.6027   -7.1996 O.3     1  UNL1       -0.3263
     37 H          15.4636   71.4351   -8.5003 H       1  UNL1        0.2105
     38 H          18.8383   72.3109  -10.2138 H       1  UNL1        0.2105
     39 C          15.9162   72.7411   -5.0874 C.2     1  UNL1        0.2231
     40 C          14.9570   73.1469   -3.9993 C.3     1  UNL1        0.0946
     41 N          16.6518   73.6755   -5.7214 N.am    1  UNL1       -0.2994
     42 O          16.0270   71.5723   -5.3937 O.2     1  UNL1       -0.2751
     43 H          16.5627   74.6102   -5.4774 H       1  UNL1        0.1496
     44 C          20.5238   70.9845   -8.8699 C.3     1  UNL1        0.1693
     45 O          21.1235   72.1662   -9.4048 O.3     1  UNL1       -0.3794
     46 H          21.7939   71.9964  -10.0806 H       1  UNL1        0.2105
@<TRIPOS>BOND
     1    29    30    1
     2    30    41    1
     3    30    31    1
     4    31    34    1
     5    31    32    1
     6    32    35    1
     7    32    33    1
     8    33    36    1
     9    33    44    1
    10    39    40    1
    11    39    42    2
    12    39    41   am
    13    41    43    1
    14    29    28    1
    15    34    37    1
    16    35    38    1
    17    29    36    1
    18    44    45    1
    19    45    46    1
    20    15     6    1
    21    15    16   ar
    22    16    21    2
    23    16    17   ar
    24    17    23    1
    25    17    18   ar
    26    18    19   ar
    27    19    20   ar
    28    15    20   ar
    29    18    22    2
    30     6     7    1
    31     6    11    1
    32     7     9    1
    33     7     8    1
    34     8    13    1
    35     9    10    1
    36     9    12    1
    37    10     5    1
    38    10    11    1
    39    12    14    1
    40     5     4    1
    41     4     1    1
    42     1     2    1
    43     1    24    1
    44     1     3    2
    45    24    25    1
    46    28    25    1
    47    25    26    1
    48    25    27    2
@<TRIPOS>MOLECULE
UD2
 46 48 0 0 0
SMALL
GASTEIGER

@<TRIPOS>ATOM
      1 P          20.4443   74.2573   -2.5520 P.3     1  UNL1        0.2189
      2 O          19.0920   74.7675   -3.2608 O.3     1  UNL1       -0.4371
      3 O          21.2557   75.4234   -2.1387 O.2     1  UNL1       -0.5170
      4 O          20.0715   73.3764   -1.2564 O.3     1  UNL1       -0.3112
      5 C          20.4869   72.0190   -1.0937 C.3     1  UNL1        0.1811
      6 C          22.8393   72.2719    1.6153 C.3     1  UNL1        0.2383
      7 C          22.4844   70.7648    1.5468 C.3     1  UNL1        0.1895
      8 O          23.5890   69.9611    1.9660 O.3     1  UNL1       -0.3779
      9 C          22.1980   70.5663    0.0381 C.3     1  UNL1        0.1713
     10 C          21.8869   71.9850   -0.4759 C.3     1  UNL1        0.1764
     11 O          21.9446   72.8713    0.6531 O.3     1  UNL1       -0.3308
     12 O          23.3481   70.0355   -0.6224 O.3     1  UNL1       -0.3794
     13 H          23.4157   69.0103    1.9412 H       1  UNL1        0.2106
     14 H          23.6244   69.1683   -0.2968 H       1  UNL1        0.2105
     15 N          22.5845   72.8013    2.9569 N.ar    1  UNL1       -0.2551
     16 C          21.3701   72.6483    3.5142 C.ar    1  UNL1        0.3323
     17 N          21.1078   73.1249    4.7455 N.ar    1  UNL1       -0.2743
     18 C          22.0671   73.7658    5.4438 C.ar    1  UNL1        0.2626
     19 C          23.3503   73.9331    4.8697 C.ar    1  UNL1        0.0795
     20 C          23.5866   73.4415    3.6352 C.ar    1  UNL1        0.0869
     21 O          20.4956   72.0722    2.8962 O.2     1  UNL1       -0.2464
     22 O          21.8312   74.1973    6.5585 O.2     1  UNL1       -0.2670
     23 H          20.2264   73.0070    5.1320 H       1  UNL1        0.1734
     24 O          21.2867   73.3570   -3.5879 O.3     1  UNL1       -0.2703
     25 P          21.3935   73.3052   -5.1938 P.3     1  UNL1        0.2208
     26 O          21.2686   74.7969   -5.7879 O.3     1  UNL1       -0.4371
     27 O          22.6985   72.7274   -5.5833 O.2     1  UNL1       -0.5170
     28 O          20.2048   72.3917   -5.7814 O.3     1  UNL1       -0.2865
     29 C          18.9928   72.9353   -6.3076 C.3     1  UNL1        0.2611
     30 C          17.8033   72.1142   -5.8039 C.3     1  UNL1        0.1582
     31 C          17.9310   70.6774   -6.3193 C.3     1  UNL1        0.1625
     32 C          18.0148   70.7003   -7.8480 C.3     1  UNL1        0.1686
     33 C          19.1965   71.5761   -8.2730 C.3     1  UNL1        0.1760
     34 O          16.7868   69.9220   -5.9150 O.3     1  UNL1       -0.3801
     35 O          16.8044   71.2372   -8.3847 O.3     1  UNL1       -0.3794
     36 O          19.0312   72.8898   -7.7355 O.3     1  UNL1       -0.3263
     37 H          16.8013   69.0002   -6.2071 H       1  UNL1        0.2105
     38 H          16.7877   71.2822   -9.3510 H       1  UNL1        0.2105
     39 C          16.6288   72.1726   -3.6698 C.2     1  UNL1        0.2231
     40 C          16.6213   72.1682   -2.1636 C.3     1  UNL1        0.0946
     41 N          17.7969   72.1101   -4.3389 N.am    1  UNL1       -0.2994
     42 O          15.5827   72.2325   -4.2816 O.2     1  UNL1       -0.2751
     43 H          18.6335   72.0632   -3.8501 H       1  UNL1        0.1496
     44 C          19.2511   71.6526   -9.7999 C.3     1  UNL1        0.1693
     45 O          18.6843   70.4652  -10.3577 O.3     1  UNL1       -0.3794
     46 H          18.6856   70.4446  -11.3244 H       1  UNL1        0.2105
@<TRIPOS>BOND
     1    29    30    1
     2    30    41    1
     3    30    31    1
     4    31    34    1
     5    31    32    1
     6    32    35    1
     7    32    33    1
     8    33    36    1
     9    33    44    1
    10    39    40    1
    11    39    42    2
    12    39    41   am
    13    41    43    1
    14    29    28    1
    15    34    37    1
    16    35    38    1
    17    29    36    1
    18    44    45    1
    19    45    46    1
    20    15     6    1
    21    15    16   ar
    22    16    21    2
    23    16    17   ar
    24    17    23    1
    25    17    18   ar
    26    18    19   ar
    27    19    20   ar
    28    15    20   ar
    29    18    22    2
    30     6     7    1
    31     6    11    1
    32     7     9    1
    33     7     8    1
    34     8    13    1
    35     9    10    1
    36     9    12    1
    37    10     5    1
    38    10    11    1
    39    12    14    1
    40     5     4    1
    41     4     1    1
    42     1     2    1
    43     1    24    1
    44     1     3    2
    45    24    25    1
    46    28    25    1
    47    25    26    1
    48    25    27    2
@<TRIPOS>MOLECULE
UD2
 46 48 0 0 0
SMALL
GASTEIGER

@<TRIPOS>ATOM
      1 P          20.5879   70.3177   -3.0759 P.3     1  UNL1        0.2189
      2 O          20.0187   69.6270   -1.7378 O.3     1  UNL1       -0.4371
      3 O          21.9729   69.8575   -3.3185 O.2     1  UNL1       -0.5170
      4 O          19.6596   69.9094   -4.3270 O.3     1  UNL1       -0.3112
      5 C          18.2348   70.0131   -4.3040 C.3     1  UNL1        0.1811
      6 C          18.7605   72.3925   -6.9495 C.3     1  UNL1        0.2383
      7 C          18.4852   71.0531   -7.6791 C.3     1  UNL1        0.1895
      8 O          17.8465   71.2794   -8.9371 O.3     1  UNL1       -0.3779
      9 C          17.5282   70.3372   -6.6946 C.3     1  UNL1        0.1713
     10 C          17.7815   71.0383   -5.3463 C.3     1  UNL1        0.1764
     11 O          18.8172   72.0109   -5.5578 O.3     1  UNL1       -0.3308
     12 O          16.1704   70.5123   -7.1026 O.3     1  UNL1       -0.3794
     13 H          17.6540   70.4714   -9.4318 H       1  UNL1        0.2106
     14 H          15.9693   70.1414   -7.9723 H       1  UNL1        0.2105
     15 N          20.0390   72.9618   -7.3813 N.ar    1  UNL1       -0.2551
     16 C          20.0672   73.8417   -8.3980 C.ar    1  UNL1        0.3323
     17 N          21.2279   74.3805   -8.8159 N.ar    1  UNL1       -0.2743
     18 C          22.3874   74.0444   -8.2151 C.ar    1  UNL1        0.2626
     19 C          22.3723   73.1202   -7.1428 C.ar    1  UNL1        0.0795
     20 C          21.1938   72.5988   -6.7419 C.ar    1  UNL1        0.0869
     21 O          19.0293   74.1541   -8.9490 O.2     1  UNL1       -0.2464
     22 O          23.4386   74.5317   -8.5921 O.2     1  UNL1       -0.2670
     23 H          21.2305   75.0125   -9.5513 H       1  UNL1        0.1734
     24 O          20.5769   71.9185   -2.9003 O.3     1  UNL1       -0.2703
     25 P          21.7151   73.0184   -2.6044 P.3     1  UNL1        0.2208
     26 O          23.1683   72.3525   -2.8010 O.3     1  UNL1       -0.4371
     27 O          21.5617   74.1520   -3.5424 O.2     1  UNL1       -0.5170
     28 O          21.5678   73.5494   -1.0915 O.3     1  UNL1       -0.2865
     29 C          20.6035   73.0296   -0.1744 C.3     1  UNL1        0.2611
     30 C          20.4865   73.9666    1.0302 C.3     1  UNL1        0.1582
     31 C          21.8347   74.0228    1.7552 C.3     1  UNL1        0.1625
     32 C          22.2436   72.6041    2.1608 C.3     1  UNL1        0.1686
     33 C          22.2929   71.7194    0.9123 C.3     1  UNL1        0.1760
     34 O          21.7147   74.8377    2.9234 O.3     1  UNL1       -0.3801
     35 O          21.2880   72.0769    3.0830 O.3     1  UNL1       -0.3794
     36 O          21.0172   71.7354    0.2685 O.3     1  UNL1       -0.3263
     37 H          22.5332   74.9183    3.4320 H       1  UNL1        0.2105
     38 H          21.4841   71.1782    3.3828 H       1  UNL1        0.2105
     39 C          18.8479   75.7372    0.6874 C.2     1  UNL1        0.2231
     40 C          18.4709   77.1175    0.2169 C.3     1  UNL1        0.0946
     41 N          20.1206   75.3092    0.5720 N.am    1  UNL1       -0.2994
     42 O          18.0056   75.0098    1.1707 O.2     1  UNL1       -0.2751
     43 H          20.7941   75.8901    0.1848 H       1  UNL1        0.1496
     44 C          22.6426   70.2860    1.3166 C.3     1  UNL1        0.1693
     45 O          21.8497   69.3697    0.5590 O.3     1  UNL1       -0.3794
     46 H          22.0188   68.4399    0.7637 H       1  UNL1        0.2105
@<TRIPOS>BOND
     1    29    30    1
     2    30    41    1
     3    30    31    1
     4    31    34    1
     5    31    32    1
     6    32    35    1
     7    32    33    1
     8    33    36    1
     9    33    44    1
    10    39    40    1
    11    39    42    2
    12    39    41   am
    13    41    43    1
    14    29    28    1
    15    34    37    1
    16    35    38    1
    17    29    36    1
    18    44    45    1
    19    45    46    1
    20    15     6    1
    21    15    16   ar
    22    16    21    2
    23    16    17   ar
    24    17    23    1
    25    17    18   ar
    26    18    19   ar
    27    19    20   ar
    28    15    20   ar
    29    18    22    2
    30     6     7    1
    31     6    11    1
    32     7     9    1
    33     7     8    1
    34     8    13    1
    35     9    10    1
    36     9    12    1
    37    10     5    1
    38    10    11    1
    39    12    14    1
    40     5     4    1
    41     4     1    1
    42     1     2    1
    43     1    24    1
    44     1     3    2
    45    24    25    1
    46    28    25    1
    47    25    26    1
    48    25    27    2
@<TRIPOS>MOLECULE
UD2
 46 48 0 0 0
SMALL
GASTEIGER

@<TRIPOS>ATOM
      1 P          22.5344   72.5771   -3.8438 P.3     1  UNL1        0.2189
      2 O          23.1910   74.0440   -3.7513 O.3     1  UNL1       -0.4371
      3 O          23.5704   71.5546   -3.5788 O.2     1  UNL1       -0.5170
      4 O          21.3587   72.4457   -2.7510 O.3     1  UNL1       -0.3112
      5 C          21.3904   73.1181   -1.4907 C.3     1  UNL1        0.1811
      6 C          23.1317   72.3727    1.5669 C.3     1  UNL1        0.2383
      7 C          22.4018   71.0548    1.2029 C.3     1  UNL1        0.1895
      8 O          23.1394   69.9199    1.6609 O.3     1  UNL1       -0.3779
      9 C          22.3801   71.1117   -0.3443 C.3     1  UNL1        0.1713
     10 C          22.5755   72.6050   -0.6689 C.3     1  UNL1        0.1764
     11 O          22.6448   73.3091    0.5812 O.3     1  UNL1       -0.3308
     12 O          23.4507   70.3371   -0.8870 O.3     1  UNL1       -0.3794
     13 H          22.7229   69.0716    1.4574 H       1  UNL1        0.2106
     14 H          23.4100   69.3975   -0.6636 H       1  UNL1        0.2105
     15 N          22.7673   72.8082    2.9170 N.ar    1  UNL1       -0.2551
     16 C          21.5642   72.4805    3.4209 C.ar    1  UNL1        0.3323
     17 N          21.2028   72.8674    4.6586 N.ar    1  UNL1       -0.2743
     18 C          22.0493   73.5930    5.4172 C.ar    1  UNL1        0.2626
     19 C          23.3194   73.9441    4.8997 C.ar    1  UNL1        0.0795
     20 C          23.6570   73.5392    3.6573 C.ar    1  UNL1        0.0869
     21 O          20.7908   71.8264    2.7482 O.2     1  UNL1       -0.2464
     22 O          21.7236   73.9434    6.5377 O.2     1  UNL1       -0.2670
     23 H          20.3310   72.6236    5.0061 H       1  UNL1        0.1734
     24 O          21.9240   72.3539   -5.3172 O.3     1  UNL1       -0.2703
     25 P          20.8305   73.1350   -6.2042 P.3     1  UNL1        0.2208
     26 O          21.0610   74.7227   -6.0637 O.3     1  UNL1       -0.4371
     27 O          20.9724   72.7403   -7.6228 O.2     1  UNL1       -0.5170
     28 O          19.3526   72.7591   -5.6873 O.3     1  UNL1       -0.2865
     29 C          18.5972   71.6677   -6.2160 C.3     1  UNL1        0.2611
     30 C          17.1168   71.8589   -5.8771 C.3     1  UNL1        0.1582
     31 C          16.9450   71.8494   -4.3550 C.3     1  UNL1        0.1625
     32 C          17.5034   70.5374   -3.7971 C.3     1  UNL1        0.1686
     33 C          18.9692   70.3971   -4.2163 C.3     1  UNL1        0.1760
     34 O          15.5568   71.9538   -4.0308 O.3     1  UNL1       -0.3801
     35 O          16.7507   69.4392   -4.3155 O.3     1  UNL1       -0.3794
     36 O          19.0621   70.4446   -5.6414 O.3     1  UNL1       -0.3263
     37 H          15.3740   71.9546   -3.0812 H       1  UNL1        0.2105
     38 H          17.0507   68.5739   -4.0038 H       1  UNL1        0.2105
     39 C          16.0045   73.1822   -7.5945 C.2     1  UNL1        0.2231
     40 C          15.5277   74.4997   -8.1472 C.3     1  UNL1        0.0946
     41 N          16.6536   73.1409   -6.4142 N.am    1  UNL1       -0.2994
     42 O          15.8044   72.1571   -8.2119 O.2     1  UNL1       -0.2751
     43 H          16.8146   73.9603   -5.9206 H       1  UNL1        0.1496
     44 C          19.5176   69.0604   -3.7133 C.3     1  UNL1        0.1693
     45 O          18.4372   68.1466   -3.5129 O.3     1  UNL1       -0.3794
     46 H          18.7117   67.2762   -3.1934 H       1  UNL1        0.2105
@<TRIPOS>BOND
     1    29    30    1
     2    30    41    1
     3    30    31    1
     4    31    34    1
     5    31    32    1
     6    32    35    1
     7    32    33    1
     8    33    36    1
     9    33    44    1
    10    39    40    1
    11    39    42    2
    12    39    41   am
    13    41    43    1
    14    29    28    1
    15    34    37    1
    16    35    38    1
    17    29    36    1
    18    44    45    1
    19    45    46    1
    20    15     6    1
    21    15    16   ar
    22    16    21    2
    23    16    17   ar
    24    17    23    1
    25    17    18   ar
    26    18    19   ar
    27    19    20   ar
    28    15    20   ar
    29    18    22    2
    30     6     7    1
    31     6    11    1
    32     7     9    1
    33     7     8    1
    34     8    13    1
    35     9    10    1
    36     9    12    1
    37    10     5    1
    38    10    11    1
    39    12    14    1
    40     5     4    1
    41     4     1    1
    42     1     2    1
    43     1    24    1
    44     1     3    2
    45    24    25    1
    46    28    25    1
    47    25    26    1
    48    25    27    2
