@<TRIPOS>MOLECULE
UD2
 46 48 0 0 0
SMALL
GASTEIGER

@<TRIPOS>ATOM
      1 P          22.0916   71.0450   -2.7205 P.3     1  UNL1        0.2189
      2 O          21.6379   69.5053   -2.8429 O.3     1  UNL1       -0.4371
      3 O          23.4098   71.2244   -3.3677 O.2     1  UNL1       -0.5170
      4 O          21.0041   71.9841   -3.4480 O.3     1  UNL1       -0.3112
      5 C          19.9783   72.6797   -2.7371 C.3     1  UNL1        0.1811
      6 C          17.8344   71.4844   -5.3661 C.3     1  UNL1        0.2383
      7 C          17.9976   70.2718   -4.4148 C.3     1  UNL1        0.1895
      8 O          16.8290   69.4498   -4.4310 O.3     1  UNL1       -0.3779
      9 C          18.1703   70.9593   -3.0382 C.3     1  UNL1        0.1713
     10 C          18.6225   72.3904   -3.3861 C.3     1  UNL1        0.1764
     11 O          18.7388   72.4666   -4.8158 O.3     1  UNL1       -0.3308
     12 O          16.9278   70.9843   -2.3337 O.3     1  UNL1       -0.3794
     13 H          16.8829   68.6775   -3.8519 H       1  UNL1        0.2106
     14 H          16.5667   70.1086   -2.1404 H       1  UNL1        0.2105
     15 N          18.2288   71.1264   -6.7304 N.ar    1  UNL1       -0.2551
     16 C          17.2949   70.7221   -7.6097 C.ar    1  UNL1        0.3323
     17 N          17.6289   70.3868   -8.8699 N.ar    1  UNL1       -0.2743
     18 C          18.9143   70.4539   -9.2721 C.ar    1  UNL1        0.2626
     19 C          19.9076   70.8789   -8.3573 C.ar    1  UNL1        0.0795
     20 C          19.5437   71.2130   -7.1013 C.ar    1  UNL1        0.0869
     21 O          16.1319   70.6569   -7.2609 O.2     1  UNL1       -0.2464
     22 O          19.2179   70.1511  -10.4126 O.2     1  UNL1       -0.2670
     23 H          16.9432   70.0961   -9.4908 H       1  UNL1        0.1734
     24 O          22.1967   71.4519   -1.1659 O.3     1  UNL1       -0.2703
     25 P          22.5288   70.6373    0.1828 P.3     1  UNL1        0.2208
     26 O          21.3584   69.5677    0.4653 O.3     1  UNL1       -0.4371
     27 O          23.8174   69.9277    0.0262 O.2     1  UNL1       -0.5170
     28 O          22.6279   71.6641    1.4192 O.3     1  UNL1       -0.2865
     29 C          21.8435   72.8550    1.5068 C.3     1  UNL1        0.2611
     30 C          22.7212   74.0694    1.1944 C.3     1  UNL1        0.1582
     31 C          23.8341   74.1673    2.2424 C.3     1  UNL1        0.1625
     32 C          23.2033   74.2499    3.6351 C.3     1  UNL1        0.1686
     33 C          22.3068   73.0282    3.8535 C.3     1  UNL1        0.1760
     34 O          24.6147   75.3403    2.0013 O.3     1  UNL1       -0.3801
     35 O          22.4208   75.4412    3.7351 O.3     1  UNL1       -0.3794
     36 O          21.3129   72.9793    2.8279 O.3     1  UNL1       -0.3263
     37 H          25.3399   75.4654    2.6287 H       1  UNL1        0.2105
     38 H          21.9898   75.5586    4.5933 H       1  UNL1        0.2105
     39 C          23.3403   74.9596   -0.9878 C.2     1  UNL1        0.2231
     40 C          23.9498   74.8020   -2.3561 C.3     1  UNL1        0.0946
     41 N          23.3141   73.9152   -0.1365 N.am    1  UNL1       -0.2994
     42 O          22.8723   76.0273   -0.6514 O.2     1  UNL1       -0.2751
     43 H          23.6872   73.0612   -0.4055 H       1  UNL1        0.1496
     44 C          21.6259   73.1332    5.2194 C.3     1  UNL1        0.1693
     45 O          22.5730   73.5809    6.1914 O.3     1  UNL1       -0.3794
     46 H          22.2099   73.6705    7.0831 H       1  UNL1        0.2105
@<TRIPOS>BOND
     1    29    30    1
     2    30    41    1
     3    30    31    1
     4    31    34    1
     5    31    32    1
     6    32    35    1
     7    32    33    1
     8    33    36    1
     9    33    44    1
    10    39    40    1
    11    39    42    2
    12    39    41   am
    13    41    43    1
    14    29    28    1
    15    34    37    1
    16    35    38    1
    17    29    36    1
    18    44    45    1
    19    45    46    1
    20    15     6    1
    21    15    16   ar
    22    16    21    2
    23    16    17   ar
    24    17    23    1
    25    17    18   ar
    26    18    19   ar
    27    19    20   ar
    28    15    20   ar
    29    18    22    2
    30     6     7    1
    31     6    11    1
    32     7     9    1
    33     7     8    1
    34     8    13    1
    35     9    10    1
    36     9    12    1
    37    10     5    1
    38    10    11    1
    39    12    14    1
    40     5     4    1
    41     4     1    1
    42     1     2    1
    43     1    24    1
    44     1     3    2
    45    24    25    1
    46    28    25    1
    47    25    26    1
    48    25    27    2
@<TRIPOS>MOLECULE
UD2
 46 48 0 0 0
SMALL
GASTEIGER

@<TRIPOS>ATOM
      1 P          22.8796   72.1465   -3.3551 P.3     1  UNL1        0.2189
      2 O          23.3914   70.6225   -3.2732 O.3     1  UNL1       -0.4371
      3 O          23.6083   72.8552   -4.4301 O.2     1  UNL1       -0.5170
      4 O          21.3010   72.1660   -3.6736 O.3     1  UNL1       -0.3112
      5 C          20.3026   71.9980   -2.6654 C.3     1  UNL1        0.1811
      6 C          18.0100   71.3205   -5.3527 C.3     1  UNL1        0.2383
      7 C          17.9967   70.0301   -4.4944 C.3     1  UNL1        0.1895
      8 O          16.7219   69.3878   -4.5589 O.3     1  UNL1       -0.3779
      9 C          18.2660   70.5820   -3.0731 C.3     1  UNL1        0.1713
     10 C          18.9196   71.9551   -3.3199 C.3     1  UNL1        0.1764
     11 O          19.0462   72.1194   -4.7413 O.3     1  UNL1       -0.3308
     12 O          17.0397   70.7330   -2.3560 O.3     1  UNL1       -0.3794
     13 H          16.6639   68.5752   -4.0384 H       1  UNL1        0.2106
     14 H          16.5563   69.9064   -2.2236 H       1  UNL1        0.2105
     15 N          18.3494   71.0115   -6.7436 N.ar    1  UNL1       -0.2551
     16 C          17.3690   70.7503   -7.6264 C.ar    1  UNL1        0.3323
     17 N          17.6518   70.4630   -8.9109 N.ar    1  UNL1       -0.2743
     18 C          18.9320   70.4347   -9.3340 C.ar    1  UNL1        0.2626
     19 C          19.9739   70.7087   -8.4156 C.ar    1  UNL1        0.0795
     20 C          19.6611   70.9979   -7.1349 C.ar    1  UNL1        0.0869
     21 O          16.2102   70.7724   -7.2589 O.2     1  UNL1       -0.2464
     22 O          19.1893   70.1753  -10.4963 O.2     1  UNL1       -0.2670
     23 H          16.9330   70.2759   -9.5340 H       1  UNL1        0.1734
     24 O          23.1514   72.8806   -1.9478 O.3     1  UNL1       -0.2703
     25 P          23.0712   74.4102   -1.4510 P.3     1  UNL1        0.2208
     26 O          24.5509   75.0457   -1.4310 O.3     1  UNL1       -0.4371
     27 O          22.2147   75.1851   -2.3753 O.2     1  UNL1       -0.5170
     28 O          22.4449   74.4608    0.0315 O.3     1  UNL1       -0.2865
     29 C          21.2395   73.7832    0.3908 C.3     1  UNL1        0.2611
     30 C          20.7499   74.2956    1.7475 C.3     1  UNL1        0.1582
     31 C          21.8005   73.9734    2.8147 C.3     1  UNL1        0.1625
     32 C          22.0581   72.4641    2.8228 C.3     1  UNL1        0.1686
     33 C          22.4974   72.0222    1.4244 C.3     1  UNL1        0.1760
     34 O          21.3193   74.3828    4.0969 O.3     1  UNL1       -0.3801
     35 O          20.8595   71.7770    3.1869 O.3     1  UNL1       -0.3794
     36 O          21.4902   72.3788    0.4755 O.3     1  UNL1       -0.3263
     37 H          21.9356   74.2092    4.8216 H       1  UNL1        0.2105
     38 H          20.9494   70.8140    3.2117 H       1  UNL1        0.2105
     39 C          19.4664   76.3038    2.2548 C.2     1  UNL1        0.2231
     40 C          19.2598   77.7941    2.1857 C.3     1  UNL1        0.0946
     41 N          20.5496   75.7454    1.6796 N.am    1  UNL1       -0.2994
     42 O          18.6572   75.6050    2.8286 O.2     1  UNL1       -0.2751
     43 H          21.1962   76.3035    1.2199 H       1  UNL1        0.1496
     44 C          22.6992   70.5058    1.4089 C.3     1  UNL1        0.1693
     45 O          21.5796   69.8819    0.7767 O.3     1  UNL1       -0.3794
     46 H          21.6396   68.9179    0.7314 H       1  UNL1        0.2105
@<TRIPOS>BOND
     1    29    30    1
     2    30    41    1
     3    30    31    1
     4    31    34    1
     5    31    32    1
     6    32    35    1
     7    32    33    1
     8    33    36    1
     9    33    44    1
    10    39    40    1
    11    39    42    2
    12    39    41   am
    13    41    43    1
    14    29    28    1
    15    34    37    1
    16    35    38    1
    17    29    36    1
    18    44    45    1
    19    45    46    1
    20    15     6    1
    21    15    16   ar
    22    16    21    2
    23    16    17   ar
    24    17    23    1
    25    17    18   ar
    26    18    19   ar
    27    19    20   ar
    28    15    20   ar
    29    18    22    2
    30     6     7    1
    31     6    11    1
    32     7     9    1
    33     7     8    1
    34     8    13    1
    35     9    10    1
    36     9    12    1
    37    10     5    1
    38    10    11    1
    39    12    14    1
    40     5     4    1
    41     4     1    1
    42     1     2    1
    43     1    24    1
    44     1     3    2
    45    24    25    1
    46    28    25    1
    47    25    26    1
    48    25    27    2
@<TRIPOS>MOLECULE
UD2
 46 48 0 0 0
SMALL
GASTEIGER

@<TRIPOS>ATOM
      1 P          22.1663   70.9073   -0.3078 P.3     1  UNL1        0.2189
      2 O          21.6046   69.5709    0.3921 O.3     1  UNL1       -0.4371
      3 O          23.4371   70.6044   -1.0022 O.2     1  UNL1       -0.5170
      4 O          21.0876   71.4483   -1.3743 O.3     1  UNL1       -0.3112
      5 C          20.9170   70.8691   -2.6692 C.3     1  UNL1        0.1811
      6 C          18.3732   71.0526   -5.2053 C.3     1  UNL1        0.2383
      7 C          18.1145   69.7018   -4.4909 C.3     1  UNL1        0.1895
      8 O          16.7245   69.3712   -4.5129 O.3     1  UNL1       -0.3779
      9 C          18.5883   70.0012   -3.0475 C.3     1  UNL1        0.1713
     10 C          19.5246   71.2148   -3.2027 C.3     1  UNL1        0.1764
     11 O          19.6002   71.5203   -4.6043 O.3     1  UNL1       -0.3308
     12 O          17.4750   70.3310   -2.2153 O.3     1  UNL1       -0.3794
     13 H          16.5122   68.5340   -4.0785 H       1  UNL1        0.2106
     14 H          16.8229   69.6224   -2.1302 H       1  UNL1        0.2105
     15 N          18.5483   70.8494   -6.6451 N.ar    1  UNL1       -0.2551
     16 C          17.4689   70.7805   -7.4445 C.ar    1  UNL1        0.3323
     17 N          17.6001   70.5942   -8.7713 N.ar    1  UNL1       -0.2743
     18 C          18.8253   70.4750   -9.3220 C.ar    1  UNL1        0.2626
     19 C          19.9703   70.5466   -8.4925 C.ar    1  UNL1        0.0795
     20 C          19.8093   70.7383   -7.1662 C.ar    1  UNL1        0.0869
     21 O          16.3580   70.8866   -6.9617 O.2     1  UNL1       -0.2464
     22 O          18.9455   70.3067  -10.5227 O.2     1  UNL1       -0.2670
     23 H          16.8114   70.5456   -9.3331 H       1  UNL1        0.1734
     24 O          22.4226   72.0339    0.8139 O.3     1  UNL1       -0.2703
     25 P          21.4792   72.7810    1.8839 P.3     1  UNL1        0.2208
     26 O          20.3332   73.6030    1.1064 O.3     1  UNL1       -0.4371
     27 O          20.8503   71.7789    2.7719 O.2     1  UNL1       -0.5170
     28 O          22.3659   73.7971    2.7637 O.3     1  UNL1       -0.2865
     29 C          23.0491   73.4030    3.9550 C.3     1  UNL1        0.2611
     30 C          22.3541   74.0202    5.1710 C.3     1  UNL1        0.1582
     31 C          22.4330   75.5468    5.0730 C.3     1  UNL1        0.1625
     32 C          23.9020   75.9658    4.9694 C.3     1  UNL1        0.1686
     33 C          24.5375   75.2734    3.7608 C.3     1  UNL1        0.1760
     34 O          21.8511   76.1307    6.2408 O.3     1  UNL1       -0.3801
     35 O          24.5935   75.5811    6.1590 O.3     1  UNL1       -0.3794
     36 O          24.4029   73.8576    3.8997 O.3     1  UNL1       -0.3263
     37 H          21.8661   77.0976    6.2458 H       1  UNL1        0.2105
     38 H          25.5322   75.8153    6.1623 H       1  UNL1        0.2105
     39 C          20.0025   74.3920    4.6517 C.2     1  UNL1        0.2231
     40 C          18.5587   73.9637    4.6767 C.3     1  UNL1        0.0946
     41 N          20.9499   73.6030    5.1960 N.am    1  UNL1       -0.2994
     42 O          20.3135   75.4479    4.1412 O.2     1  UNL1       -0.2751
     43 H          20.7016   72.7592    5.6051 H       1  UNL1        0.1496
     44 C          26.0209   75.6400    3.6850 C.3     1  UNL1        0.1693
     45 O          26.4541   76.1397    4.9518 O.3     1  UNL1       -0.3794
     46 H          27.3871   76.3926    4.9773 H       1  UNL1        0.2105
@<TRIPOS>BOND
     1    29    30    1
     2    30    41    1
     3    30    31    1
     4    31    34    1
     5    31    32    1
     6    32    35    1
     7    32    33    1
     8    33    36    1
     9    33    44    1
    10    39    40    1
    11    39    42    2
    12    39    41   am
    13    41    43    1
    14    29    28    1
    15    34    37    1
    16    35    38    1
    17    29    36    1
    18    44    45    1
    19    45    46    1
    20    15     6    1
    21    15    16   ar
    22    16    21    2
    23    16    17   ar
    24    17    23    1
    25    17    18   ar
    26    18    19   ar
    27    19    20   ar
    28    15    20   ar
    29    18    22    2
    30     6     7    1
    31     6    11    1
    32     7     9    1
    33     7     8    1
    34     8    13    1
    35     9    10    1
    36     9    12    1
    37    10     5    1
    38    10    11    1
    39    12    14    1
    40     5     4    1
    41     4     1    1
    42     1     2    1
    43     1    24    1
    44     1     3    2
    45    24    25    1
    46    28    25    1
    47    25    26    1
    48    25    27    2
@<TRIPOS>MOLECULE
UD2
 46 48 0 0 0
SMALL
GASTEIGER

@<TRIPOS>ATOM
      1 P          22.5914   72.2315   -3.6634 P.3     1  UNL1        0.2189
      2 O          22.7877   73.4979   -2.6893 O.3     1  UNL1       -0.4371
      3 O          23.5254   71.1545   -3.2677 O.2     1  UNL1       -0.5170
      4 O          21.0765   71.6968   -3.5496 O.3     1  UNL1       -0.3112
      5 C          20.0816   72.3440   -2.7540 C.3     1  UNL1        0.1811
      6 C          17.8560   71.3492   -5.3986 C.3     1  UNL1        0.2383
      7 C          17.9579   70.1014   -4.4849 C.3     1  UNL1        0.1895
      8 O          16.7451   69.3465   -4.5154 O.3     1  UNL1       -0.3779
      9 C          18.1783   70.7366   -3.0902 C.3     1  UNL1        0.1713
     10 C          18.7073   72.1501   -3.3995 C.3     1  UNL1        0.1764
     11 O          18.8177   72.2627   -4.8273 O.3     1  UNL1       -0.3308
     12 O          16.9440   70.8096   -2.3745 O.3     1  UNL1       -0.3794
     13 H          16.7598   68.5555   -3.9598 H       1  UNL1        0.2106
     14 H          16.5359   69.9500   -2.2041 H       1  UNL1        0.2105
     15 N          18.2202   71.0110   -6.7762 N.ar    1  UNL1       -0.2551
     16 C          17.2548   70.7597   -7.6782 C.ar    1  UNL1        0.3323
     17 N          17.5607   70.4462   -8.9512 N.ar    1  UNL1       -0.2743
     18 C          18.8493   70.3810   -9.3433 C.ar    1  UNL1        0.2626
     19 C          19.8757   70.6441   -8.4045 C.ar    1  UNL1        0.0795
     20 C          19.5401   70.9601   -7.1360 C.ar    1  UNL1        0.0869
     21 O          16.0886   70.8151   -7.3388 O.2     1  UNL1       -0.2464
     22 O          19.1274   70.0977  -10.4952 O.2     1  UNL1       -0.2670
     23 H          16.8523   70.2668   -9.5885 H       1  UNL1        0.1734
     24 O          22.8917   72.6713   -5.1831 O.3     1  UNL1       -0.2703
     25 P          22.2890   73.8008   -6.1599 P.3     1  UNL1        0.2208
     26 O          20.8478   74.2684   -5.6138 O.3     1  UNL1       -0.4371
     27 O          23.2036   74.9629   -6.1942 O.2     1  UNL1       -0.5170
     28 O          22.1309   73.1976   -7.6444 O.3     1  UNL1       -0.2865
     29 C          21.8038   74.0004   -8.7801 C.3     1  UNL1        0.2611
     30 C          22.3884   75.4034   -8.5999 C.3     1  UNL1        0.1582
     31 C          21.7529   76.0577   -7.3692 C.3     1  UNL1        0.1625
     32 C          20.2320   76.0807   -7.5447 C.3     1  UNL1        0.1686
     33 C          19.7304   74.6512   -7.7656 C.3     1  UNL1        0.1760
     34 O          22.2386   77.3954   -7.2357 O.3     1  UNL1       -0.3801
     35 O          19.8938   76.8862   -8.6752 O.3     1  UNL1       -0.3794
     36 O          20.3831   74.0900   -8.9062 O.3     1  UNL1       -0.3263
     37 H          21.8775   77.8704   -6.4747 H       1  UNL1        0.2105
     38 H          18.9435   76.9451   -8.8468 H       1  UNL1        0.2105
     39 C          24.6594   76.1582   -9.0587 C.2     1  UNL1        0.2231
     40 C          26.1499   76.0618   -8.8643 C.3     1  UNL1        0.0946
     41 N          23.8381   75.3088   -8.4105 N.am    1  UNL1       -0.2994
     42 O          24.1973   77.0010   -9.7992 O.2     1  UNL1       -0.2751
     43 H          24.2072   74.6342   -7.8192 H       1  UNL1        0.1496
     44 C          18.2190   74.6720   -8.0012 C.3     1  UNL1        0.1693
     45 O          17.8592   75.8744   -8.6846 O.3     1  UNL1       -0.3794
     46 H          16.9132   75.9555   -8.8677 H       1  UNL1        0.2105
@<TRIPOS>BOND
     1    29    30    1
     2    30    41    1
     3    30    31    1
     4    31    34    1
     5    31    32    1
     6    32    35    1
     7    32    33    1
     8    33    36    1
     9    33    44    1
    10    39    40    1
    11    39    42    2
    12    39    41   am
    13    41    43    1
    14    29    28    1
    15    34    37    1
    16    35    38    1
    17    29    36    1
    18    44    45    1
    19    45    46    1
    20    15     6    1
    21    15    16   ar
    22    16    21    2
    23    16    17   ar
    24    17    23    1
    25    17    18   ar
    26    18    19   ar
    27    19    20   ar
    28    15    20   ar
    29    18    22    2
    30     6     7    1
    31     6    11    1
    32     7     9    1
    33     7     8    1
    34     8    13    1
    35     9    10    1
    36     9    12    1
    37    10     5    1
    38    10    11    1
    39    12    14    1
    40     5     4    1
    41     4     1    1
    42     1     2    1
    43     1    24    1
    44     1     3    2
    45    24    25    1
    46    28    25    1
    47    25    26    1
    48    25    27    2
@<TRIPOS>MOLECULE
UD2
 46 48 0 0 0
SMALL
GASTEIGER

@<TRIPOS>ATOM
      1 P          21.8345   70.7113   -0.6263 P.3     1  UNL1        0.2189
      2 O          21.5638   69.5095    0.4100 O.3     1  UNL1       -0.4371
      3 O          22.9378   70.3378   -1.5385 O.2     1  UNL1       -0.5170
      4 O          20.5003   70.9910   -1.4839 O.3     1  UNL1       -0.3112
      5 C          20.4811   71.8311   -2.6394 C.3     1  UNL1        0.1811
      6 C          18.0825   71.2664   -5.2594 C.3     1  UNL1        0.2383
      7 C          18.0719   69.9557   -4.4322 C.3     1  UNL1        0.1895
      8 O          16.7824   69.3411   -4.4668 O.3     1  UNL1       -0.3779
      9 C          18.4021   70.4670   -3.0085 C.3     1  UNL1        0.1713
     10 C          19.0755   71.8322   -3.2454 C.3     1  UNL1        0.1764
     11 O          19.1559   72.0288   -4.6661 O.3     1  UNL1       -0.3308
     12 O          17.2050   70.6250   -2.2451 O.3     1  UNL1       -0.3794
     13 H          16.7254   68.5173   -3.9642 H       1  UNL1        0.2106
     14 H          16.7092   69.8054   -2.1155 H       1  UNL1        0.2105
     15 N          18.3666   70.9848   -6.6683 N.ar    1  UNL1       -0.2551
     16 C          17.3499   70.7938   -7.5278 C.ar    1  UNL1        0.3323
     17 N          17.5817   70.5333   -8.8281 N.ar    1  UNL1       -0.2743
     18 C          18.8463   70.4615   -9.2910 C.ar    1  UNL1        0.2626
     19 C          19.9260   70.6615   -8.3975 C.ar    1  UNL1        0.0795
     20 C          19.6643   70.9253   -7.1000 C.ar    1  UNL1        0.0869
     21 O          16.2046   70.8559   -7.1244 O.2     1  UNL1       -0.2464
     22 O          19.0574   70.2262  -10.4677 O.2     1  UNL1       -0.2670
     23 H          16.8371   70.3970   -9.4341 H       1  UNL1        0.1734
     24 O          22.2373   72.0414    0.1873 O.3     1  UNL1       -0.2703
     25 P          21.6335   72.7863    1.4810 P.3     1  UNL1        0.2208
     26 O          20.5850   73.9142    1.0095 O.3     1  UNL1       -0.4371
     27 O          20.9430   71.8004    2.3409 O.2     1  UNL1       -0.5170
     28 O          22.8292   73.4771    2.3091 O.3     1  UNL1       -0.2865
     29 C          22.7555   74.8106    2.8167 C.3     1  UNL1        0.2611
     30 C          24.1320   75.2384    3.3315 C.3     1  UNL1        0.1582
     31 C          24.5421   74.3223    4.4886 C.3     1  UNL1        0.1625
     32 C          23.4694   74.3842    5.5795 C.3     1  UNL1        0.1686
     33 C          22.1182   73.9891    4.9778 C.3     1  UNL1        0.1760
     34 O          25.7932   74.7603    5.0237 O.3     1  UNL1       -0.3801
     35 O          23.3917   75.7132    6.0981 O.3     1  UNL1       -0.3794
     36 O          21.8108   74.8606    3.8878 O.3     1  UNL1       -0.3263
     37 H          26.1145   74.2237    5.7612 H       1  UNL1        0.2105
     38 H          22.7300   75.8262    6.7947 H       1  UNL1        0.2105
     39 C          25.4904   76.2309    1.5687 C.2     1  UNL1        0.2231
     40 C          26.5003   76.1209    0.4567 C.3     1  UNL1        0.0946
     41 N          25.1142   75.1306    2.2498 N.am    1  UNL1       -0.2994
     42 O          25.0149   77.3107    1.8519 O.2     1  UNL1       -0.2751
     43 H          25.4934   74.2670    2.0230 H       1  UNL1        0.1496
     44 C          21.0303   74.1060    6.0471 C.3     1  UNL1        0.1693
     45 O          19.9092   73.3008    5.6771 O.3     1  UNL1       -0.3794
     46 H          19.1793   73.3267    6.3108 H       1  UNL1        0.2105
@<TRIPOS>BOND
     1    29    30    1
     2    30    41    1
     3    30    31    1
     4    31    34    1
     5    31    32    1
     6    32    35    1
     7    32    33    1
     8    33    36    1
     9    33    44    1
    10    39    40    1
    11    39    42    2
    12    39    41   am
    13    41    43    1
    14    29    28    1
    15    34    37    1
    16    35    38    1
    17    29    36    1
    18    44    45    1
    19    45    46    1
    20    15     6    1
    21    15    16   ar
    22    16    21    2
    23    16    17   ar
    24    17    23    1
    25    17    18   ar
    26    18    19   ar
    27    19    20   ar
    28    15    20   ar
    29    18    22    2
    30     6     7    1
    31     6    11    1
    32     7     9    1
    33     7     8    1
    34     8    13    1
    35     9    10    1
    36     9    12    1
    37    10     5    1
    38    10    11    1
    39    12    14    1
    40     5     4    1
    41     4     1    1
    42     1     2    1
    43     1    24    1
    44     1     3    2
    45    24    25    1
    46    28    25    1
    47    25    26    1
    48    25    27    2
@<TRIPOS>MOLECULE
UD2
 46 48 0 0 0
SMALL
GASTEIGER

@<TRIPOS>ATOM
      1 P          22.7992   72.0801   -3.2150 P.3     1  UNL1        0.2189
      2 O          23.4342   70.6011   -3.1923 O.3     1  UNL1       -0.4371
      3 O          23.4767   72.8927   -4.2491 O.2     1  UNL1       -0.5170
      4 O          21.2274   71.9840   -3.5524 O.3     1  UNL1       -0.3112
      5 C          20.2080   72.2019   -2.5753 C.3     1  UNL1        0.1811
      6 C          17.9700   71.3935   -5.2724 C.3     1  UNL1        0.2383
      7 C          18.0143   70.1100   -4.4048 C.3     1  UNL1        0.1895
      8 O          16.7732   69.4052   -4.4728 O.3     1  UNL1       -0.3779
      9 C          18.2463   70.6844   -2.9858 C.3     1  UNL1        0.1713
     10 C          18.8332   72.0863   -3.2384 C.3     1  UNL1        0.1764
     11 O          18.9614   72.2467   -4.6601 O.3     1  UNL1       -0.3308
     12 O          17.0092   70.7798   -2.2778 O.3     1  UNL1       -0.3794
     13 H          16.7517   68.5944   -3.9468 H       1  UNL1        0.2106
     14 H          16.5662   69.9313   -2.1426 H       1  UNL1        0.2105
     15 N          18.3337   71.0919   -6.6587 N.ar    1  UNL1       -0.2551
     16 C          17.3712   70.8011   -7.5520 C.ar    1  UNL1        0.3323
     17 N          17.6766   70.5198   -8.8325 N.ar    1  UNL1       -0.2743
     18 C          18.9617   70.5275   -9.2413 C.ar    1  UNL1        0.2626
     19 C          19.9849   70.8329   -8.3118 C.ar    1  UNL1        0.0795
     20 C          19.6496   71.1152   -7.0353 C.ar    1  UNL1        0.0869
     21 O          16.2082   70.7907   -7.1975 O.2     1  UNL1       -0.2464
     22 O          19.2393   70.2735  -10.4001 O.2     1  UNL1       -0.2670
     23 H          16.9704   70.3111   -9.4633 H       1  UNL1        0.1734
     24 O          22.9967   72.7714   -1.7740 O.3     1  UNL1       -0.2703
     25 P          23.0713   74.2981   -1.2674 P.3     1  UNL1        0.2208
     26 O          24.5713   74.8531   -1.4569 O.3     1  UNL1       -0.4371
     27 O          22.1357   75.1270   -2.0585 O.2     1  UNL1       -0.5170
     28 O          22.6657   74.3673    0.2893 O.3     1  UNL1       -0.2865
     29 C          23.3885   73.6817    1.3133 C.3     1  UNL1        0.2611
     30 C          22.4904   72.6168    1.9476 C.3     1  UNL1        0.1582
     31 C          21.2882   73.3012    2.6055 C.3     1  UNL1        0.1625
     32 C          21.7926   74.3206    3.6305 C.3     1  UNL1        0.1686
     33 C          22.7178   75.3201    2.9311 C.3     1  UNL1        0.1760
     34 O          20.4823   72.3210    3.2635 O.3     1  UNL1       -0.3801
     35 O          22.5124   73.6441    4.6627 O.3     1  UNL1       -0.3794
     36 O          23.7975   74.6161    2.3143 O.3     1  UNL1       -0.3263
     37 H          19.7011   72.6848    3.7022 H       1  UNL1        0.2105
     38 H          22.8625   74.2302    5.3481 H       1  UNL1        0.2105
     39 C          22.4718   70.4224    0.8884 C.2     1  UNL1        0.2231
     40 C          21.9901   69.4713   -0.1755 C.3     1  UNL1        0.0946
     41 N          22.0215   71.6923    0.9122 N.am    1  UNL1       -0.2994
     42 O          23.2660   70.0455    1.7248 O.2     1  UNL1       -0.2751
     43 H          21.3873   71.9943    0.2432 H       1  UNL1        0.1496
     44 C          23.2734   76.3066    3.9600 C.3     1  UNL1        0.1693
     45 O          24.5066   75.8075    4.4820 O.3     1  UNL1       -0.3794
     46 H          24.9167   76.3832    5.1418 H       1  UNL1        0.2105
@<TRIPOS>BOND
     1    29    30    1
     2    30    41    1
     3    30    31    1
     4    31    34    1
     5    31    32    1
     6    32    35    1
     7    32    33    1
     8    33    36    1
     9    33    44    1
    10    39    40    1
    11    39    42    2
    12    39    41   am
    13    41    43    1
    14    29    28    1
    15    34    37    1
    16    35    38    1
    17    29    36    1
    18    44    45    1
    19    45    46    1
    20    15     6    1
    21    15    16   ar
    22    16    21    2
    23    16    17   ar
    24    17    23    1
    25    17    18   ar
    26    18    19   ar
    27    19    20   ar
    28    15    20   ar
    29    18    22    2
    30     6     7    1
    31     6    11    1
    32     7     9    1
    33     7     8    1
    34     8    13    1
    35     9    10    1
    36     9    12    1
    37    10     5    1
    38    10    11    1
    39    12    14    1
    40     5     4    1
    41     4     1    1
    42     1     2    1
    43     1    24    1
    44     1     3    2
    45    24    25    1
    46    28    25    1
    47    25    26    1
    48    25    27    2
@<TRIPOS>MOLECULE
UD2
 46 48 0 0 0
SMALL
GASTEIGER

@<TRIPOS>ATOM
      1 P          22.3704   70.4571   -0.1832 P.3     1  UNL1        0.2189
      2 O          21.4719   70.6899    1.1321 O.3     1  UNL1       -0.4371
      3 O          23.5369   69.6137    0.1584 O.2     1  UNL1       -0.5170
      4 O          21.4883   69.7214   -1.3121 O.3     1  UNL1       -0.3112
      5 C          21.4273   70.1718   -2.6666 C.3     1  UNL1        0.1811
      6 C          18.6767   70.7228   -4.9178 C.3     1  UNL1        0.2383
      7 C          18.5242   69.2469   -4.4699 C.3     1  UNL1        0.1895
      8 O          17.1492   68.8584   -4.4535 O.3     1  UNL1       -0.3779
      9 C          19.1059   69.2805   -3.0354 C.3     1  UNL1        0.1713
     10 C          19.9844   70.5459   -3.0149 C.3     1  UNL1        0.1764
     11 O          19.9329   71.1238   -4.3289 O.3     1  UNL1       -0.3308
     12 O          18.0551   69.3849   -2.0733 O.3     1  UNL1       -0.3794
     13 H          17.0022   67.9427   -4.1802 H       1  UNL1        0.2106
     14 H          17.4368   68.6419   -2.0828 H       1  UNL1        0.2105
     15 N          18.7383   70.8149   -6.3782 N.ar    1  UNL1       -0.2551
     16 C          17.5992   70.8471   -7.0925 C.ar    1  UNL1        0.3323
     17 N          17.6260   70.9313   -8.4358 N.ar    1  UNL1       -0.2743
     18 C          18.8045   70.9869   -9.0890 C.ar    1  UNL1        0.2626
     19 C          20.0112   70.9550   -8.3496 C.ar    1  UNL1        0.0795
     20 C          19.9546   70.8745   -7.0035 C.ar    1  UNL1        0.0869
     21 O          16.5294   70.7979   -6.5168 O.2     1  UNL1       -0.2464
     22 O          18.8300   71.0636  -10.3047 O.2     1  UNL1       -0.2670
     23 H          16.7954   70.9522   -8.9355 H       1  UNL1        0.1734
     24 O          22.8806   71.8781   -0.7433 O.3     1  UNL1       -0.2703
     25 P          22.3349   73.3883   -0.6229 P.3     1  UNL1        0.2208
     26 O          20.7255   73.3831   -0.6810 O.3     1  UNL1       -0.4371
     27 O          22.7797   73.9730    0.6611 O.2     1  UNL1       -0.5170
     28 O          22.9135   74.2666   -1.8421 O.3     1  UNL1       -0.2865
     29 C          23.5088   73.6877   -3.0048 C.3     1  UNL1        0.2611
     30 C          24.5674   74.6405   -3.5654 C.3     1  UNL1        0.1582
     31 C          23.8914   75.9476   -3.9908 C.3     1  UNL1        0.1625
     32 C          22.7941   75.6337   -5.0115 C.3     1  UNL1        0.1686
     33 C          21.8036   74.6423   -4.3950 C.3     1  UNL1        0.1760
     34 O          24.8606   76.8153   -4.5832 O.3     1  UNL1       -0.3801
     35 O          23.3800   75.0592   -6.1812 O.3     1  UNL1       -0.3794
     36 O          22.5015   73.4619   -3.9930 O.3     1  UNL1       -0.3263
     37 H          24.5013   77.6641   -4.8760 H       1  UNL1        0.2105
     38 H          22.7411   74.8339   -6.8718 H       1  UNL1        0.2105
     39 C          25.4081   75.9714   -1.7054 C.2     1  UNL1        0.2231
     40 C          26.4374   76.2598   -0.6443 C.3     1  UNL1        0.0946
     41 N          25.5692   74.9206   -2.5337 N.am    1  UNL1       -0.2994
     42 O          24.4331   76.6852   -1.8149 O.2     1  UNL1       -0.2751
     43 H          26.3490   74.3502   -2.4471 H       1  UNL1        0.1496
     44 C          20.7371   74.2774   -5.4292 C.3     1  UNL1        0.1693
     45 O          19.6425   75.1907   -5.3284 O.3     1  UNL1       -0.3794
     46 H          18.9272   75.0191   -5.9560 H       1  UNL1        0.2105
@<TRIPOS>BOND
     1    29    30    1
     2    30    41    1
     3    30    31    1
     4    31    34    1
     5    31    32    1
     6    32    35    1
     7    32    33    1
     8    33    36    1
     9    33    44    1
    10    39    40    1
    11    39    42    2
    12    39    41   am
    13    41    43    1
    14    29    28    1
    15    34    37    1
    16    35    38    1
    17    29    36    1
    18    44    45    1
    19    45    46    1
    20    15     6    1
    21    15    16   ar
    22    16    21    2
    23    16    17   ar
    24    17    23    1
    25    17    18   ar
    26    18    19   ar
    27    19    20   ar
    28    15    20   ar
    29    18    22    2
    30     6     7    1
    31     6    11    1
    32     7     9    1
    33     7     8    1
    34     8    13    1
    35     9    10    1
    36     9    12    1
    37    10     5    1
    38    10    11    1
    39    12    14    1
    40     5     4    1
    41     4     1    1
    42     1     2    1
    43     1    24    1
    44     1     3    2
    45    24    25    1
    46    28    25    1
    47    25    26    1
    48    25    27    2
@<TRIPOS>MOLECULE
UD2
 46 48 0 0 0
SMALL
GASTEIGER

@<TRIPOS>ATOM
      1 P          22.3697   70.5598   -0.2691 P.3     1  UNL1        0.2189
      2 O          23.5418   69.6115    0.2949 O.3     1  UNL1       -0.4371
      3 O          22.9648   71.6875   -1.0194 O.2     1  UNL1       -0.5170
      4 O          21.4148   69.7085   -1.2474 O.3     1  UNL1       -0.3112
      5 C          21.3010   69.9741   -2.6467 C.3     1  UNL1        0.1811
      6 C          18.5722   70.7286   -4.8651 C.3     1  UNL1        0.2383
      7 C          18.4184   69.2172   -4.5581 C.3     1  UNL1        0.1895
      8 O          17.0442   68.8271   -4.5920 O.3     1  UNL1       -0.3779
      9 C          18.9855   69.1179   -3.1207 C.3     1  UNL1        0.1713
     10 C          19.8609   70.3770   -2.9735 C.3     1  UNL1        0.1764
     11 O          19.8215   71.0747   -4.2285 O.3     1  UNL1       -0.3308
     12 O          17.9247   69.1310   -2.1639 O.3     1  UNL1       -0.3794
     13 H          16.8965   67.8898   -4.4067 H       1  UNL1        0.2106
     14 H          17.3082   68.3913   -2.2489 H       1  UNL1        0.2105
     15 N          18.6484   70.9563   -6.3098 N.ar    1  UNL1       -0.2551
     16 C          17.5185   71.1385   -7.0163 C.ar    1  UNL1        0.3323
     17 N          17.5588   71.3495   -8.3452 N.ar    1  UNL1       -0.2743
     18 C          18.7419   71.3834   -8.9915 C.ar    1  UNL1        0.2626
     19 C          19.9391   71.1943   -8.2602 C.ar    1  UNL1        0.0795
     20 C          19.8694   70.9888   -6.9281 C.ar    1  UNL1        0.0869
     21 O          16.4447   71.1107   -6.4466 O.2     1  UNL1       -0.2464
     22 O          18.7797   71.5748  -10.1942 O.2     1  UNL1       -0.2670
     23 H          16.7346   71.4778   -8.8395 H       1  UNL1        0.1734
     24 O          21.5027   71.1317    0.9617 O.3     1  UNL1       -0.2703
     25 P          21.8192   72.1340    2.1815 P.3     1  UNL1        0.2208
     26 O          20.5319   72.2298    3.1446 O.3     1  UNL1       -0.4371
     27 O          22.9743   71.6242    2.9524 O.2     1  UNL1       -0.5170
     28 O          22.1645   73.5952    1.5997 O.3     1  UNL1       -0.2865
     29 C          23.2993   74.3533    2.0226 C.3     1  UNL1        0.2611
     30 C          22.8411   75.4933    2.9354 C.3     1  UNL1        0.1582
     31 C          21.9235   76.4312    2.1451 C.3     1  UNL1        0.1625
     32 C          22.6730   76.9411    0.9112 C.3     1  UNL1        0.1686
     33 C          23.1377   75.7450    0.0761 C.3     1  UNL1        0.1760
     34 O          21.5497   77.5384    2.9683 O.3     1  UNL1       -0.3801
     35 O          23.8072   77.7059    1.3234 O.3     1  UNL1       -0.3794
     36 O          23.9615   74.8970    0.8788 O.3     1  UNL1       -0.3263
     37 H          20.9666   78.1740    2.5309 H       1  UNL1        0.2105
     38 H          24.3305   78.0606    0.5911 H       1  UNL1        0.2105
     39 C          22.7267   74.7976    5.2679 C.2     1  UNL1        0.2231
     40 C          21.9753   74.2302    6.4436 C.3     1  UNL1        0.0946
     41 N          22.1097   74.9410    4.0784 N.am    1  UNL1       -0.2994
     42 O          23.8882   75.1259    5.3913 O.2     1  UNL1       -0.2751
     43 H          21.1813   74.6777    3.9791 H       1  UNL1        0.1496
     44 C          23.9391   76.2441   -1.1276 C.3     1  UNL1        0.1693
     45 O          23.0973   77.0404   -1.9641 O.3     1  UNL1       -0.3794
     46 H          23.5403   77.3912   -2.7488 H       1  UNL1        0.2105
@<TRIPOS>BOND
     1    29    30    1
     2    30    41    1
     3    30    31    1
     4    31    34    1
     5    31    32    1
     6    32    35    1
     7    32    33    1
     8    33    36    1
     9    33    44    1
    10    39    40    1
    11    39    42    2
    12    39    41   am
    13    41    43    1
    14    29    28    1
    15    34    37    1
    16    35    38    1
    17    29    36    1
    18    44    45    1
    19    45    46    1
    20    15     6    1
    21    15    16   ar
    22    16    21    2
    23    16    17   ar
    24    17    23    1
    25    17    18   ar
    26    18    19   ar
    27    19    20   ar
    28    15    20   ar
    29    18    22    2
    30     6     7    1
    31     6    11    1
    32     7     9    1
    33     7     8    1
    34     8    13    1
    35     9    10    1
    36     9    12    1
    37    10     5    1
    38    10    11    1
    39    12    14    1
    40     5     4    1
    41     4     1    1
    42     1     2    1
    43     1    24    1
    44     1     3    2
    45    24    25    1
    46    28    25    1
    47    25    26    1
    48    25    27    2
@<TRIPOS>MOLECULE
UD2
 46 48 0 0 0
SMALL
GASTEIGER

@<TRIPOS>ATOM
      1 P          22.4356   70.5623   -0.2796 P.3     1  UNL1        0.2189
      2 O          21.3191   69.6229    0.4003 O.3     1  UNL1       -0.4371
      3 O          23.7440   69.8722   -0.2539 O.2     1  UNL1       -0.5170
      4 O          22.0210   70.8703   -1.8051 O.3     1  UNL1       -0.3112
      5 C          21.2829   69.9498   -2.6108 C.3     1  UNL1        0.1811
      6 C          18.6732   70.8826   -4.9034 C.3     1  UNL1        0.2383
      7 C          18.2476   69.4893   -4.3744 C.3     1  UNL1        0.1895
      8 O          16.8241   69.3686   -4.3433 O.3     1  UNL1       -0.3779
      9 C          18.8331   69.4929   -2.9410 C.3     1  UNL1        0.1713
     10 C          19.9345   70.5691   -2.9869 C.3     1  UNL1        0.1764
     11 O          19.9857   71.0719   -4.3315 O.3     1  UNL1       -0.3308
     12 O          17.8261   69.8473   -1.9917 O.3     1  UNL1       -0.3794
     13 H          16.5086   68.5139   -4.0200 H       1  UNL1        0.2106
     14 H          17.0787   69.2349   -1.9627 H       1  UNL1        0.2105
     15 N          18.7430   70.8795   -6.3663 N.ar    1  UNL1       -0.2551
     16 C          17.6124   70.9800   -7.0877 C.ar    1  UNL1        0.3323
     17 N          17.6468   70.9797   -8.4334 N.ar    1  UNL1       -0.2743
     18 C          18.8248   70.8796   -9.0822 C.ar    1  UNL1        0.2626
     19 C          20.0229   70.7742   -8.3354 C.ar    1  UNL1        0.0795
     20 C          19.9591   70.7814   -6.9873 C.ar    1  UNL1        0.0869
     21 O          16.5431   71.0711   -6.5160 O.2     1  UNL1       -0.2464
     22 O          18.8573   70.8795  -10.3002 O.2     1  UNL1       -0.2670
     23 H          16.8221   71.0517   -8.9382 H       1  UNL1        0.1734
     24 O          22.5423   71.9463    0.5367 O.3     1  UNL1       -0.2703
     25 P          21.6645   73.2959    0.5685 P.3     1  UNL1        0.2208
     26 O          20.3212   73.0822   -0.2939 O.3     1  UNL1       -0.4371
     27 O          21.3060   73.6188    1.9669 O.2     1  UNL1       -0.5170
     28 O          22.5193   74.5070   -0.0602 O.3     1  UNL1       -0.2865
     29 C          23.7842   74.3184   -0.6972 C.3     1  UNL1        0.2611
     30 C          24.4419   75.6789   -0.9406 C.3     1  UNL1        0.1582
     31 C          23.5616   76.4997   -1.8882 C.3     1  UNL1        0.1625
     32 C          23.3563   75.7138   -3.1861 C.3     1  UNL1        0.1686
     33 C          22.7403   74.3516   -2.8561 C.3     1  UNL1        0.1760
     34 O          24.2039   77.7431   -2.1793 O.3     1  UNL1       -0.3801
     35 O          24.6154   75.5247   -3.8343 O.3     1  UNL1       -0.3794
     36 O          23.5930   73.6525   -1.9472 O.3     1  UNL1       -0.3263
     37 H          23.7008   78.3152   -2.7748 H       1  UNL1        0.2105
     38 H          24.5608   75.0322   -4.6652 H       1  UNL1        0.2105
     39 C          25.7298   76.2891    1.0359 C.2     1  UNL1        0.2231
     40 C          25.8770   77.0184    2.3455 C.3     1  UNL1        0.0946
     41 N          24.5842   76.3885    0.3333 N.am    1  UNL1       -0.2994
     42 O          26.6431   75.6114    0.6128 O.2     1  UNL1       -0.2751
     43 H          23.8535   76.9294    0.6717 H       1  UNL1        0.1496
     44 C          22.5871   73.5365   -4.1416 C.3     1  UNL1        0.1693
     45 O          23.7565   72.7404   -4.3440 O.3     1  UNL1       -0.3794
     46 H          23.7291   72.1961   -5.1427 H       1  UNL1        0.2105
@<TRIPOS>BOND
     1    29    30    1
     2    30    41    1
     3    30    31    1
     4    31    34    1
     5    31    32    1
     6    32    35    1
     7    32    33    1
     8    33    36    1
     9    33    44    1
    10    39    40    1
    11    39    42    2
    12    39    41   am
    13    41    43    1
    14    29    28    1
    15    34    37    1
    16    35    38    1
    17    29    36    1
    18    44    45    1
    19    45    46    1
    20    15     6    1
    21    15    16   ar
    22    16    21    2
    23    16    17   ar
    24    17    23    1
    25    17    18   ar
    26    18    19   ar
    27    19    20   ar
    28    15    20   ar
    29    18    22    2
    30     6     7    1
    31     6    11    1
    32     7     9    1
    33     7     8    1
    34     8    13    1
    35     9    10    1
    36     9    12    1
    37    10     5    1
    38    10    11    1
    39    12    14    1
    40     5     4    1
    41     4     1    1
    42     1     2    1
    43     1    24    1
    44     1     3    2
    45    24    25    1
    46    28    25    1
    47    25    26    1
    48    25    27    2
@<TRIPOS>MOLECULE
UD2
 46 48 0 0 0
SMALL
GASTEIGER

@<TRIPOS>ATOM
      1 P          21.4331   71.5351   -0.1328 P.3     1  UNL1        0.2189
      2 O          21.3379   69.9368    0.0337 O.3     1  UNL1       -0.4371
      3 O          22.7680   71.8984   -0.6571 O.2     1  UNL1       -0.5170
      4 O          20.2984   72.0361   -1.1600 O.3     1  UNL1       -0.3112
      5 C          20.4147   71.8926   -2.5768 C.3     1  UNL1        0.1811
      6 C          18.0573   71.3131   -5.2308 C.3     1  UNL1        0.2383
      7 C          18.0313   70.0084   -4.3947 C.3     1  UNL1        0.1895
      8 O          16.7415   69.3956   -4.4456 O.3     1  UNL1       -0.3779
      9 C          18.3396   70.5291   -2.9695 C.3     1  UNL1        0.1713
     10 C          19.0189   71.8917   -3.2052 C.3     1  UNL1        0.1764
     11 O          19.1224   72.0781   -4.6258 O.3     1  UNL1       -0.3308
     12 O          17.1307   70.6944   -2.2265 O.3     1  UNL1       -0.3794
     13 H          16.6752   68.5754   -3.9382 H       1  UNL1        0.2106
     14 H          16.6315   69.8765   -2.0991 H       1  UNL1        0.2105
     15 N          18.3634   71.0212   -6.6330 N.ar    1  UNL1       -0.2551
     16 C          17.3609   70.8033   -7.5025 C.ar    1  UNL1        0.3323
     17 N          17.6130   70.5327   -8.7969 N.ar    1  UNL1       -0.2743
     18 C          18.8842   70.4777   -9.2437 C.ar    1  UNL1        0.2626
     19 C          19.9492   70.7062   -8.3395 C.ar    1  UNL1        0.0795
     20 C          19.6672   70.9795   -7.0483 C.ar    1  UNL1        0.0869
     21 O          16.2098   70.8498   -7.1137 O.2     1  UNL1       -0.2464
     22 O          19.1137   70.2333  -10.4151 O.2     1  UNL1       -0.2670
     23 H          16.8783   70.3768   -9.4102 H       1  UNL1        0.1734
     24 O          21.2086   72.2383    1.2985 O.3     1  UNL1       -0.2703
     25 P          21.3213   73.7545    1.8289 P.3     1  UNL1        0.2208
     26 O          22.8502   74.2487    1.7195 O.3     1  UNL1       -0.4371
     27 O          20.4601   74.6309    1.0051 O.2     1  UNL1       -0.5170
     28 O          20.8435   73.8224    3.3651 O.3     1  UNL1       -0.2865
     29 C          20.4574   75.0390    4.0072 C.3     1  UNL1        0.2611
     30 C          21.2524   75.2070    5.3042 C.3     1  UNL1        0.1582
     31 C          20.9148   74.0529    6.2531 C.3     1  UNL1        0.1625
     32 C          19.4034   74.0323    6.4972 C.3     1  UNL1        0.1686
     33 C          18.6795   73.9094    5.1537 C.3     1  UNL1        0.1760
     34 O          21.5966   74.2412    7.4952 O.3     1  UNL1       -0.3801
     35 O          19.0076   75.2429    7.1446 O.3     1  UNL1       -0.3794
     36 O          19.0609   74.9961    4.3078 O.3     1  UNL1       -0.3263
     37 H          21.4288   73.5450    8.1450 H       1  UNL1        0.2105
     38 H          18.0597   75.2989    7.3299 H       1  UNL1        0.2105
     39 C          23.3809   74.0397    5.0937 C.2     1  UNL1        0.2231
     40 C          24.8552   74.0225    4.7857 C.3     1  UNL1        0.0946
     41 N          22.6865   75.1912    5.0047 N.am    1  UNL1       -0.2994
     42 O          22.8177   73.0164    5.4222 O.2     1  UNL1       -0.2751
     43 H          23.1366   76.0097    4.7431 H       1  UNL1        0.1496
     44 C          17.1675   73.9483    5.3839 C.3     1  UNL1        0.1693
     45 O          16.8517   73.2605    6.5962 O.3     1  UNL1       -0.3794
     46 H          15.9079   73.2452    6.8059 H       1  UNL1        0.2105
@<TRIPOS>BOND
     1    29    30    1
     2    30    41    1
     3    30    31    1
     4    31    34    1
     5    31    32    1
     6    32    35    1
     7    32    33    1
     8    33    36    1
     9    33    44    1
    10    39    40    1
    11    39    42    2
    12    39    41   am
    13    41    43    1
    14    29    28    1
    15    34    37    1
    16    35    38    1
    17    29    36    1
    18    44    45    1
    19    45    46    1
    20    15     6    1
    21    15    16   ar
    22    16    21    2
    23    16    17   ar
    24    17    23    1
    25    17    18   ar
    26    18    19   ar
    27    19    20   ar
    28    15    20   ar
    29    18    22    2
    30     6     7    1
    31     6    11    1
    32     7     9    1
    33     7     8    1
    34     8    13    1
    35     9    10    1
    36     9    12    1
    37    10     5    1
    38    10    11    1
    39    12    14    1
    40     5     4    1
    41     4     1    1
    42     1     2    1
    43     1    24    1
    44     1     3    2
    45    24    25    1
    46    28    25    1
    47    25    26    1
    48    25    27    2
@<TRIPOS>MOLECULE
UD2
 46 48 0 0 0
SMALL
GASTEIGER

@<TRIPOS>ATOM
      1 P          20.2600   71.7957   -4.7488 P.3     1  UNL1        0.2189
      2 O          19.0884   72.6305   -4.0265 O.3     1  UNL1       -0.4371
      3 O          20.3107   70.4281   -4.1867 O.2     1  UNL1       -0.5170
      4 O          19.9651   71.7155   -6.3301 O.3     1  UNL1       -0.3112
      5 C          19.4842   70.5331   -6.9720 C.3     1  UNL1        0.1811
      6 C          16.7632   72.5590   -8.1671 C.3     1  UNL1        0.2383
      7 C          18.0153   73.1269   -8.8825 C.3     1  UNL1        0.1895
      8 O          17.6741   73.6544  -10.1658 O.3     1  UNL1       -0.3779
      9 C          18.9085   71.8698   -9.0216 C.3     1  UNL1        0.1713
     10 C          18.3673   70.9030   -7.9511 C.3     1  UNL1        0.1764
     11 O          17.3119   71.5838   -7.2541 O.3     1  UNL1       -0.3308
     12 O          18.7705   71.3016  -10.3250 O.3     1  UNL1       -0.3794
     13 H          18.4243   74.0220  -10.6523 H       1  UNL1        0.2106
     14 H          19.0415   71.8903  -11.0423 H       1  UNL1        0.2105
     15 N          16.0640   73.6166   -7.4339 N.ar    1  UNL1       -0.2551
     16 C          15.0185   74.2428   -8.0029 C.ar    1  UNL1        0.3323
     17 N          14.3576   75.2185   -7.3523 N.ar    1  UNL1       -0.2743
     18 C          14.7361   75.5834   -6.1105 C.ar    1  UNL1        0.2626
     19 C          15.8343   74.9319   -5.4990 C.ar    1  UNL1        0.0795
     20 C          16.4759   73.9543   -6.1728 C.ar    1  UNL1        0.0869
     21 O          14.6660   73.9241   -9.1220 O.2     1  UNL1       -0.2464
     22 O          14.1385   76.4660   -5.5204 O.2     1  UNL1       -0.2670
     23 H          13.6067   75.6606   -7.7776 H       1  UNL1        0.1734
     24 O          21.6722   72.5298   -4.5036 O.3     1  UNL1       -0.2703
     25 P          22.8866   72.3010   -3.4713 P.3     1  UNL1        0.2208
     26 O          23.2230   70.7287   -3.3792 O.3     1  UNL1       -0.4371
     27 O          24.0815   73.0336   -3.9446 O.2     1  UNL1       -0.5170
     28 O          22.4639   72.8459   -2.0163 O.3     1  UNL1       -0.2865
     29 C          21.2793   72.4211   -1.3399 C.3     1  UNL1        0.2611
     30 C          20.7615   73.5566   -0.4537 C.3     1  UNL1        0.1582
     31 C          21.8137   73.8821    0.6110 C.3     1  UNL1        0.1625
     32 C          22.1221   72.6147    1.4127 C.3     1  UNL1        0.1686
     33 C          22.5876   71.5152    0.4543 C.3     1  UNL1        0.1760
     34 O          21.3084   74.8911    1.4884 O.3     1  UNL1       -0.3801
     35 O          20.9446   72.1845    2.0980 O.3     1  UNL1       -0.3794
     36 O          21.5767   71.2829   -0.5285 O.3     1  UNL1       -0.3263
     37 H          21.9243   75.1473    2.1885 H       1  UNL1        0.2105
     38 H          21.0669   71.3838    2.6270 H       1  UNL1        0.2105
     39 C          21.4830   75.6643   -1.4411 C.2     1  UNL1        0.2231
     40 C          21.2281   76.8850   -2.2858 C.3     1  UNL1        0.0946
     41 N          20.5127   74.7439   -1.2753 N.am    1  UNL1       -0.2994
     42 O          22.5625   75.5090   -0.9094 O.2     1  UNL1       -0.2751
     43 H          19.6492   74.8682   -1.6994 H       1  UNL1        0.1496
     44 C          22.8408   70.2274    1.2403 C.3     1  UNL1        0.1693
     45 O          22.9122   69.1229    0.3363 O.3     1  UNL1       -0.3794
     46 H          23.0713   68.2715    0.7663 H       1  UNL1        0.2105
@<TRIPOS>BOND
     1    29    30    1
     2    30    41    1
     3    30    31    1
     4    31    34    1
     5    31    32    1
     6    32    35    1
     7    32    33    1
     8    33    36    1
     9    33    44    1
    10    39    40    1
    11    39    42    2
    12    39    41   am
    13    41    43    1
    14    29    28    1
    15    34    37    1
    16    35    38    1
    17    29    36    1
    18    44    45    1
    19    45    46    1
    20    15     6    1
    21    15    16   ar
    22    16    21    2
    23    16    17   ar
    24    17    23    1
    25    17    18   ar
    26    18    19   ar
    27    19    20   ar
    28    15    20   ar
    29    18    22    2
    30     6     7    1
    31     6    11    1
    32     7     9    1
    33     7     8    1
    34     8    13    1
    35     9    10    1
    36     9    12    1
    37    10     5    1
    38    10    11    1
    39    12    14    1
    40     5     4    1
    41     4     1    1
    42     1     2    1
    43     1    24    1
    44     1     3    2
    45    24    25    1
    46    28    25    1
    47    25    26    1
    48    25    27    2
@<TRIPOS>MOLECULE
UD2
 46 48 0 0 0
SMALL
GASTEIGER

@<TRIPOS>ATOM
      1 P          22.3688   70.4796    0.1756 P.3     1  UNL1        0.2189
      2 O          21.4088   70.8250    1.4208 O.3     1  UNL1       -0.4371
      3 O          23.4263   69.5417    0.6126 O.2     1  UNL1       -0.5170
      4 O          21.5009   69.8005   -0.9988 O.3     1  UNL1       -0.3112
      5 C          20.5693   70.5313   -1.7986 C.3     1  UNL1        0.1811
      6 C          20.2611   71.2585   -5.3075 C.3     1  UNL1        0.2383
      7 C          20.9249   72.5225   -4.7044 C.3     1  UNL1        0.1895
      8 O          21.7865   73.1497   -5.6564 O.3     1  UNL1       -0.3779
      9 C          21.7393   71.9321   -3.5273 C.3     1  UNL1        0.1713
     10 C          21.0651   70.5756   -3.2461 C.3     1  UNL1        0.1764
     11 O          19.9531   70.4555   -4.1474 O.3     1  UNL1       -0.3308
     12 O          23.1030   71.7437   -3.9090 O.3     1  UNL1       -0.3794
     13 H          22.2247   73.9456   -5.3261 H       1  UNL1        0.2106
     14 H          23.5598   72.5596   -4.1541 H       1  UNL1        0.2105
     15 N          19.0373   71.6133   -6.0296 N.ar    1  UNL1       -0.2551
     16 C          18.8696   71.2022   -7.2991 C.ar    1  UNL1        0.3323
     17 N          17.7550   71.5137   -7.9868 N.ar    1  UNL1       -0.2743
     18 C          16.7826   72.2466   -7.4072 C.ar    1  UNL1        0.2626
     19 C          16.9454   72.6852   -6.0711 C.ar    1  UNL1        0.0795
     20 C          18.0712   72.3546   -5.4041 C.ar    1  UNL1        0.0869
     21 O          19.7381   70.5405   -7.8342 O.2     1  UNL1       -0.2464
     22 O          15.7731   72.5289   -8.0284 O.2     1  UNL1       -0.2670
     23 H          17.6507   71.2102   -8.9017 H       1  UNL1        0.1734
     24 O          23.0454   71.8342   -0.3726 O.3     1  UNL1       -0.2703
     25 P          22.8822   73.3934   -0.0051 P.3     1  UNL1        0.2208
     26 O          24.0308   74.2427   -0.7489 O.3     1  UNL1       -0.4371
     27 O          21.5532   73.8685   -0.4483 O.2     1  UNL1       -0.5170
     28 O          23.0179   73.5863    1.5877 O.3     1  UNL1       -0.2865
     29 C          22.8267   74.8436    2.2387 C.3     1  UNL1        0.2611
     30 C          24.1077   75.2363    2.9785 C.3     1  UNL1        0.1582
     31 C          24.4026   74.1926    4.0603 C.3     1  UNL1        0.1625
     32 C          23.1975   74.0920    4.9994 C.3     1  UNL1        0.1686
     33 C          21.9513   73.7432    4.1814 C.3     1  UNL1        0.1760
     34 O          25.5564   74.5899    4.8047 O.3     1  UNL1       -0.3801
     35 O          23.0010   75.3434    5.6602 O.3     1  UNL1       -0.3794
     36 O          21.7514   74.7367    3.1739 O.3     1  UNL1       -0.3263
     37 H          25.8019   73.9730    5.5079 H       1  UNL1        0.2105
     38 H          22.2516   75.3525    6.2720 H       1  UNL1        0.2105
     39 C          25.8746   76.4490    1.8186 C.2     1  UNL1        0.2231
     40 C          27.0222   76.5030    0.8447 C.3     1  UNL1        0.0946
     41 N          25.2238   75.2881    2.0309 N.am    1  UNL1       -0.2994
     42 O          25.5353   77.4510    2.4127 O.2     1  UNL1       -0.2751
     43 H          25.4941   74.4870    1.5553 H       1  UNL1        0.1496
     44 C          20.7317   73.6994    5.1040 C.3     1  UNL1        0.1693
     45 O          19.6026   73.2073    4.3792 O.3     1  UNL1       -0.3794
     46 H          18.7917   73.1526    4.9031 H       1  UNL1        0.2105
@<TRIPOS>BOND
     1    29    30    1
     2    30    41    1
     3    30    31    1
     4    31    34    1
     5    31    32    1
     6    32    35    1
     7    32    33    1
     8    33    36    1
     9    33    44    1
    10    39    40    1
    11    39    42    2
    12    39    41   am
    13    41    43    1
    14    29    28    1
    15    34    37    1
    16    35    38    1
    17    29    36    1
    18    44    45    1
    19    45    46    1
    20    15     6    1
    21    15    16   ar
    22    16    21    2
    23    16    17   ar
    24    17    23    1
    25    17    18   ar
    26    18    19   ar
    27    19    20   ar
    28    15    20   ar
    29    18    22    2
    30     6     7    1
    31     6    11    1
    32     7     9    1
    33     7     8    1
    34     8    13    1
    35     9    10    1
    36     9    12    1
    37    10     5    1
    38    10    11    1
    39    12    14    1
    40     5     4    1
    41     4     1    1
    42     1     2    1
    43     1    24    1
    44     1     3    2
    45    24    25    1
    46    28    25    1
    47    25    26    1
    48    25    27    2
@<TRIPOS>MOLECULE
UD2
 46 48 0 0 0
SMALL
GASTEIGER

@<TRIPOS>ATOM
      1 P          22.8703   71.8148   -3.2698 P.3     1  UNL1        0.2189
      2 O          23.8481   72.8455   -4.0266 O.3     1  UNL1       -0.4371
      3 O          23.4733   70.4638   -3.2800 O.2     1  UNL1       -0.5170
      4 O          22.6577   72.2962   -1.7477 O.3     1  UNL1       -0.3112
      5 C          22.3108   71.4001   -0.6904 C.3     1  UNL1        0.1811
      6 C          21.1903   73.4326    2.0574 C.3     1  UNL1        0.2383
      7 C          21.2249   74.3992    0.8464 C.3     1  UNL1        0.1895
      8 O          20.2260   75.4129    0.9742 O.3     1  UNL1       -0.3779
      9 C          20.9026   73.4519   -0.3352 C.3     1  UNL1        0.1713
     10 C          21.2493   72.0498    0.2008 C.3     1  UNL1        0.1764
     11 O          21.7635   72.2157    1.5318 O.3     1  UNL1       -0.3308
     12 O          19.5168   73.5300   -0.6735 O.3     1  UNL1       -0.3794
     13 H          20.2083   76.0427    0.2409 H       1  UNL1        0.2106
     14 H          19.2302   74.4071   -0.9614 H       1  UNL1        0.2105
     15 N          22.0049   73.9541    3.1571 N.ar    1  UNL1       -0.2551
     16 C          21.4297   74.7002    4.1169 C.ar    1  UNL1        0.3323
     17 N          22.1541   75.1926    5.1391 N.ar    1  UNL1       -0.2743
     18 C          23.4768   74.9412    5.2167 C.ar    1  UNL1        0.2626
     19 C          24.0951   74.1564    4.2137 C.ar    1  UNL1        0.0795
     20 C          23.3438   73.6721    3.2026 C.ar    1  UNL1        0.0869
     21 O          20.2380   74.9347    4.0599 O.2     1  UNL1       -0.2464
     22 O          24.1335   75.3859    6.1415 O.2     1  UNL1       -0.2670
     23 H          21.7238   75.7297    5.8221 H       1  UNL1        0.1734
     24 O          21.4472   71.7734   -4.0224 O.3     1  UNL1       -0.2703
     25 P          20.3022   72.8686   -4.3095 P.3     1  UNL1        0.2208
     26 O          18.9786   72.4924   -3.4727 O.3     1  UNL1       -0.4371
     27 O          20.7829   74.2052   -3.8964 O.2     1  UNL1       -0.5170
     28 O          19.9569   72.8843   -5.8821 O.3     1  UNL1       -0.2865
     29 C          20.1796   71.7632   -6.7393 C.3     1  UNL1        0.2611
     30 C          20.0642   72.2055   -8.2000 C.3     1  UNL1        0.1582
     31 C          18.6429   72.7144   -8.4596 C.3     1  UNL1        0.1625
     32 C          17.6440   71.6087   -8.1073 C.3     1  UNL1        0.1686
     33 C          17.8528   71.1893   -6.6497 C.3     1  UNL1        0.1760
     34 O          18.5047   73.0609   -9.8395 O.3     1  UNL1       -0.3801
     35 O          17.8547   70.4843   -8.9632 O.3     1  UNL1       -0.3794
     36 O          19.2025   70.7560   -6.4690 O.3     1  UNL1       -0.3263
     37 H          17.6274   73.3925  -10.0753 H       1  UNL1        0.2105
     38 H          17.2554   69.7435   -8.7953 H       1  UNL1        0.2105
     39 C          20.6491   74.5675   -8.3298 C.2     1  UNL1        0.2231
     40 C          21.6360   75.6727   -8.6000 C.3     1  UNL1        0.0946
     41 N          21.0247   73.2801   -8.4632 N.am    1  UNL1       -0.2994
     42 O          19.5151   74.8358   -7.9920 O.2     1  UNL1       -0.2751
     43 H          21.9310   73.0652   -8.7342 H       1  UNL1        0.1496
     44 C          16.8987   70.0434   -6.3074 C.3     1  UNL1        0.1693
     45 O          16.7870   69.9237   -4.8877 O.3     1  UNL1       -0.3794
     46 H          16.1965   69.2151   -4.5974 H       1  UNL1        0.2105
@<TRIPOS>BOND
     1    29    30    1
     2    30    41    1
     3    30    31    1
     4    31    34    1
     5    31    32    1
     6    32    35    1
     7    32    33    1
     8    33    36    1
     9    33    44    1
    10    39    40    1
    11    39    42    2
    12    39    41   am
    13    41    43    1
    14    29    28    1
    15    34    37    1
    16    35    38    1
    17    29    36    1
    18    44    45    1
    19    45    46    1
    20    15     6    1
    21    15    16   ar
    22    16    21    2
    23    16    17   ar
    24    17    23    1
    25    17    18   ar
    26    18    19   ar
    27    19    20   ar
    28    15    20   ar
    29    18    22    2
    30     6     7    1
    31     6    11    1
    32     7     9    1
    33     7     8    1
    34     8    13    1
    35     9    10    1
    36     9    12    1
    37    10     5    1
    38    10    11    1
    39    12    14    1
    40     5     4    1
    41     4     1    1
    42     1     2    1
    43     1    24    1
    44     1     3    2
    45    24    25    1
    46    28    25    1
    47    25    26    1
    48    25    27    2
@<TRIPOS>MOLECULE
UD2
 46 48 0 0 0
SMALL
GASTEIGER

@<TRIPOS>ATOM
      1 P          21.7553   70.6099   -1.3874 P.3     1  UNL1        0.2189
      2 O          22.5063   70.3994   -2.7956 O.3     1  UNL1       -0.4371
      3 O          22.2033   69.5756   -0.4291 O.2     1  UNL1       -0.5170
      4 O          22.1067   72.0697   -0.8049 O.3     1  UNL1       -0.3112
      5 C          21.2871   72.7422    0.1529 C.3     1  UNL1        0.1811
      6 C          23.2836   73.5784    3.0254 C.3     1  UNL1        0.2383
      7 C          21.8866   74.1739    3.3351 C.3     1  UNL1        0.1895
      8 O          21.6323   74.1735    4.7412 O.3     1  UNL1       -0.3779
      9 C          20.9433   73.1883    2.6028 C.3     1  UNL1        0.1713
     10 C          21.8478   72.5076    1.5578 C.3     1  UNL1        0.1764
     11 O          23.1514   73.1005    1.6691 O.3     1  UNL1       -0.3308
     12 O          20.4221   72.2233    3.5182 O.3     1  UNL1       -0.3794
     13 H          20.7704   74.5372    4.9853 H       1  UNL1        0.2106
     14 H          19.8929   72.6032    4.2324 H       1  UNL1        0.2105
     15 N          24.3159   74.6139    3.1097 N.ar    1  UNL1       -0.2551
     16 C          24.9577   74.8220    4.2732 C.ar    1  UNL1        0.3323
     17 N          25.9106   75.7669    4.3794 N.ar    1  UNL1       -0.2743
     18 C          26.2389   76.5228    3.3120 C.ar    1  UNL1        0.2626
     19 C          25.5721   76.3138    2.0808 C.ar    1  UNL1        0.0795
     20 C          24.6239   75.3567    2.0018 C.ar    1  UNL1        0.0869
     21 O          24.6721   74.1477    5.2438 O.2     1  UNL1       -0.2464
     22 O          27.1014   77.3781    3.4067 O.2     1  UNL1       -0.2670
     23 H          26.3626   75.9047    5.2261 H       1  UNL1        0.1734
     24 O          20.1642   70.4882   -1.6040 O.3     1  UNL1       -0.2703
     25 P          19.2381   69.9102   -2.7878 P.3     1  UNL1        0.2208
     26 O          19.9229   68.5914   -3.4088 O.3     1  UNL1       -0.4371
     27 O          17.9048   69.5652   -2.2478 O.2     1  UNL1       -0.5170
     28 O          19.0796   71.0255   -3.9383 O.3     1  UNL1       -0.2865
     29 C          19.7254   70.9303   -5.2091 C.3     1  UNL1        0.2611
     30 C          20.2598   72.3058   -5.6154 C.3     1  UNL1        0.1582
     31 C          19.0848   73.2774   -5.7625 C.3     1  UNL1        0.1625
     32 C          18.0953   72.7138   -6.7859 C.3     1  UNL1        0.1686
     33 C          17.6441   71.3222   -6.3343 C.3     1  UNL1        0.1760
     34 O          19.5675   74.5452   -6.2129 O.3     1  UNL1       -0.3801
     35 O          18.7299   72.6198   -8.0624 O.3     1  UNL1       -0.3794
     36 O          18.7870   70.4771   -6.1871 O.3     1  UNL1       -0.3263
     37 H          18.8755   75.2110   -6.3273 H       1  UNL1        0.2105
     38 H          18.1600   72.2687   -8.7609 H       1  UNL1        0.2105
     39 C          22.4503   73.1015   -4.9038 C.2     1  UNL1        0.2231
     40 C          23.3934   73.6084   -3.8444 C.3     1  UNL1        0.0946
     41 N          21.1766   72.7986   -4.5843 N.am    1  UNL1       -0.2994
     42 O          22.8371   72.9655   -6.0457 O.2     1  UNL1       -0.2751
     43 H          20.8672   72.9062   -3.6712 H       1  UNL1        0.1496
     44 C          16.7010   70.7272   -7.3817 C.3     1  UNL1        0.1693
     45 O          16.1317   71.7793   -8.1636 O.3     1  UNL1       -0.3794
     46 H          15.5219   71.4747   -8.8494 H       1  UNL1        0.2105
@<TRIPOS>BOND
     1    29    30    1
     2    30    41    1
     3    30    31    1
     4    31    34    1
     5    31    32    1
     6    32    35    1
     7    32    33    1
     8    33    36    1
     9    33    44    1
    10    39    40    1
    11    39    42    2
    12    39    41   am
    13    41    43    1
    14    29    28    1
    15    34    37    1
    16    35    38    1
    17    29    36    1
    18    44    45    1
    19    45    46    1
    20    15     6    1
    21    15    16   ar
    22    16    21    2
    23    16    17   ar
    24    17    23    1
    25    17    18   ar
    26    18    19   ar
    27    19    20   ar
    28    15    20   ar
    29    18    22    2
    30     6     7    1
    31     6    11    1
    32     7     9    1
    33     7     8    1
    34     8    13    1
    35     9    10    1
    36     9    12    1
    37    10     5    1
    38    10    11    1
    39    12    14    1
    40     5     4    1
    41     4     1    1
    42     1     2    1
    43     1    24    1
    44     1     3    2
    45    24    25    1
    46    28    25    1
    47    25    26    1
    48    25    27    2
@<TRIPOS>MOLECULE
UD2
 46 48 0 0 0
SMALL
GASTEIGER

@<TRIPOS>ATOM
      1 P          20.1378   70.0133   -2.9981 P.3     1  UNL1        0.2189
      2 O          19.6850   68.5237   -3.4072 O.3     1  UNL1       -0.4371
      3 O          21.3812   70.3668   -3.7179 O.2     1  UNL1       -0.5170
      4 O          18.9747   71.0550   -3.3926 O.3     1  UNL1       -0.3112
      5 C          17.6914   70.6437   -3.8675 C.3     1  UNL1        0.1811
      6 C          18.5397   72.3392   -6.9240 C.3     1  UNL1        0.2383
      7 C          18.3509   70.8580   -7.3394 C.3     1  UNL1        0.1895
      8 O          17.8697   70.7621   -8.6814 O.3     1  UNL1       -0.3779
      9 C          17.2800   70.3717   -6.3324 C.3     1  UNL1        0.1713
     10 C          17.3703   71.3796   -5.1707 C.3     1  UNL1        0.1764
     11 O          18.4267   72.3010   -5.4847 O.3     1  UNL1       -0.3308
     12 O          15.9820   70.4091   -6.9278 O.3     1  UNL1       -0.3794
     13 H          17.7362   69.8549   -8.9877 H       1  UNL1        0.2106
     14 H          15.8865   69.8370   -7.7011 H       1  UNL1        0.2105
     15 N          19.8626   72.8229   -7.3253 N.ar    1  UNL1       -0.2551
     16 C          19.9970   73.5312   -8.4607 C.ar    1  UNL1        0.3323
     17 N          21.2007   73.9880   -8.8539 N.ar    1  UNL1       -0.2743
     18 C          22.2969   73.7415   -8.1081 C.ar    1  UNL1        0.2626
     19 C          22.1698   72.9981   -6.9101 C.ar    1  UNL1        0.0795
     20 C          20.9502   72.5560   -6.5379 C.ar    1  UNL1        0.0869
     21 O          19.0171   73.7612   -9.1429 O.2     1  UNL1       -0.2464
     22 O          23.3869   74.1547   -8.4627 O.2     1  UNL1       -0.2670
     23 H          21.2801   74.4961   -9.6759 H       1  UNL1        0.1734
     24 O          20.3994   70.0781   -1.4105 O.3     1  UNL1       -0.2703
     25 P          21.6817   70.4303   -0.5023 P.3     1  UNL1        0.2208
     26 O          21.7516   69.4128    0.7442 O.3     1  UNL1       -0.4371
     27 O          22.9118   70.3007   -1.3136 O.2     1  UNL1       -0.5170
     28 O          21.5545   71.9399    0.0432 O.3     1  UNL1       -0.2865
     29 C          22.6717   72.8231    0.1572 C.3     1  UNL1        0.2611
     30 C          22.2029   74.1720    0.7081 C.3     1  UNL1        0.1582
     31 C          21.2123   74.7998   -0.2773 C.3     1  UNL1        0.1625
     32 C          21.8859   74.9342   -1.6458 C.3     1  UNL1        0.1686
     33 C          22.3670   73.5555   -2.1061 C.3     1  UNL1        0.1760
     34 O          20.8254   76.0928    0.1936 O.3     1  UNL1       -0.3801
     35 O          23.0018   75.8205   -1.5439 O.3     1  UNL1       -0.3794
     36 O          23.2605   73.0145   -1.1309 O.3     1  UNL1       -0.3263
     37 H          20.1970   76.5490   -0.3827 H       1  UNL1        0.2105
     38 H          23.4776   75.9522   -2.3759 H       1  UNL1        0.2105
     39 C          22.2781   73.9364    3.1323 C.2     1  UNL1        0.2231
     40 C          21.6029   73.7294    4.4626 C.3     1  UNL1        0.0946
     41 N          21.5454   73.9704    2.0017 N.am    1  UNL1       -0.2994
     42 O          23.4825   74.0728    3.0778 O.2     1  UNL1       -0.2751
     43 H          20.5825   73.8604    2.0447 H       1  UNL1        0.1496
     44 C          23.0941   73.6903   -3.4453 C.3     1  UNL1        0.1693
     45 O          23.6945   72.4401   -3.7902 O.3     1  UNL1       -0.3794
     46 H          24.1739   72.4517   -4.6298 H       1  UNL1        0.2105
@<TRIPOS>BOND
     1    29    30    1
     2    30    41    1
     3    30    31    1
     4    31    34    1
     5    31    32    1
     6    32    35    1
     7    32    33    1
     8    33    36    1
     9    33    44    1
    10    39    40    1
    11    39    42    2
    12    39    41   am
    13    41    43    1
    14    29    28    1
    15    34    37    1
    16    35    38    1
    17    29    36    1
    18    44    45    1
    19    45    46    1
    20    15     6    1
    21    15    16   ar
    22    16    21    2
    23    16    17   ar
    24    17    23    1
    25    17    18   ar
    26    18    19   ar
    27    19    20   ar
    28    15    20   ar
    29    18    22    2
    30     6     7    1
    31     6    11    1
    32     7     9    1
    33     7     8    1
    34     8    13    1
    35     9    10    1
    36     9    12    1
    37    10     5    1
    38    10    11    1
    39    12    14    1
    40     5     4    1
    41     4     1    1
    42     1     2    1
    43     1    24    1
    44     1     3    2
    45    24    25    1
    46    28    25    1
    47    25    26    1
    48    25    27    2
@<TRIPOS>MOLECULE
UD2
 46 48 0 0 0
SMALL
GASTEIGER

@<TRIPOS>ATOM
      1 P          22.4539   73.5201   -3.8042 P.3     1  UNL1        0.2189
      2 O          22.9939   74.7655   -2.9389 O.3     1  UNL1       -0.4371
      3 O          23.5790   72.6120   -4.1182 O.2     1  UNL1       -0.5170
      4 O          21.3400   72.7219   -2.9582 O.3     1  UNL1       -0.3112
      5 C          21.1261   72.9328   -1.5614 C.3     1  UNL1        0.1811
      6 C          23.0268   72.3197    1.4300 C.3     1  UNL1        0.2383
      7 C          22.3570   70.9596    1.1082 C.3     1  UNL1        0.1895
      8 O          23.1740   69.8723    1.5466 O.3     1  UNL1       -0.3779
      9 C          22.2703   70.9972   -0.4373 C.3     1  UNL1        0.1713
     10 C          22.3697   72.4951   -0.7836 C.3     1  UNL1        0.1764
     11 O          22.4499   73.2164    0.4560 O.3     1  UNL1       -0.3308
     12 O          23.3596   70.2763   -1.0157 O.3     1  UNL1       -0.3794
     13 H          22.7973   69.0000    1.3681 H       1  UNL1        0.2106
     14 H          23.3799   69.3385   -0.7820 H       1  UNL1        0.2105
     15 N          22.6932   72.7501    2.7895 N.ar    1  UNL1       -0.2551
     16 C          21.4709   72.4939    3.2886 C.ar    1  UNL1        0.3323
     17 N          21.1369   72.8780    4.5348 N.ar    1  UNL1       -0.2743
     18 C          22.0308   73.5286    5.3070 C.ar    1  UNL1        0.2626
     19 C          23.3215   73.8040    4.7948 C.ar    1  UNL1        0.0795
     20 C          23.6306   73.4035    3.5435 C.ar    1  UNL1        0.0869
     21 O          20.6549   71.9079    2.6037 O.2     1  UNL1       -0.2464
     22 O          21.7299   73.8765    6.4353 O.2     1  UNL1       -0.2670
     23 H          20.2508   72.6864    4.8787 H       1  UNL1        0.1734
     24 O          21.8015   74.0604   -5.1738 O.3     1  UNL1       -0.2703
     25 P          21.5329   73.4037   -6.6193 P.3     1  UNL1        0.2208
     26 O          21.2675   74.5704   -7.6973 O.3     1  UNL1       -0.4371
     27 O          22.7140   72.6132   -7.0295 O.2     1  UNL1       -0.5170
     28 O          20.2438   72.4420   -6.5405 O.3     1  UNL1       -0.2865
     29 C          19.0152   72.8356   -5.9266 C.3     1  UNL1        0.2611
     30 C          18.1572   71.5967   -5.6595 C.3     1  UNL1        0.1582
     31 C          17.8163   70.9251   -6.9934 C.3     1  UNL1        0.1625
     32 C          17.1076   71.9384   -7.8964 C.3     1  UNL1        0.1686
     33 C          18.0064   73.1645   -8.0773 C.3     1  UNL1        0.1760
     34 O          16.9543   69.8091   -6.7593 O.3     1  UNL1       -0.3801
     35 O          15.8742   72.3345   -7.2939 O.3     1  UNL1       -0.3794
     36 O          18.3108   73.7229   -6.7977 O.3     1  UNL1       -0.3263
     37 H          16.6982   69.3353   -7.5625 H       1  UNL1        0.2105
     38 H          15.3710   72.9778   -7.8125 H       1  UNL1        0.2105
     39 C          18.2631   69.9684   -3.8498 C.2     1  UNL1        0.2231
     40 C          19.0274   69.0038   -2.9815 C.3     1  UNL1        0.0946
     41 N          18.9014   70.6587   -4.8152 N.am    1  UNL1       -0.2994
     42 O          17.0718   70.1244   -3.6803 O.2     1  UNL1       -0.2751
     43 H          19.8540   70.5350   -4.9504 H       1  UNL1        0.1496
     44 C          17.2808   74.2073   -8.9297 C.3     1  UNL1        0.1693
     45 O          17.3497   73.8299  -10.3063 O.3     1  UNL1       -0.3794
     46 H          16.9093   74.4471  -10.9064 H       1  UNL1        0.2105
@<TRIPOS>BOND
     1    29    30    1
     2    30    41    1
     3    30    31    1
     4    31    34    1
     5    31    32    1
     6    32    35    1
     7    32    33    1
     8    33    36    1
     9    33    44    1
    10    39    40    1
    11    39    42    2
    12    39    41   am
    13    41    43    1
    14    29    28    1
    15    34    37    1
    16    35    38    1
    17    29    36    1
    18    44    45    1
    19    45    46    1
    20    15     6    1
    21    15    16   ar
    22    16    21    2
    23    16    17   ar
    24    17    23    1
    25    17    18   ar
    26    18    19   ar
    27    19    20   ar
    28    15    20   ar
    29    18    22    2
    30     6     7    1
    31     6    11    1
    32     7     9    1
    33     7     8    1
    34     8    13    1
    35     9    10    1
    36     9    12    1
    37    10     5    1
    38    10    11    1
    39    12    14    1
    40     5     4    1
    41     4     1    1
    42     1     2    1
    43     1    24    1
    44     1     3    2
    45    24    25    1
    46    28    25    1
    47    25    26    1
    48    25    27    2
@<TRIPOS>MOLECULE
UD2
 46 48 0 0 0
SMALL
GASTEIGER

@<TRIPOS>ATOM
      1 P          21.9966   70.7027   -2.7863 P.3     1  UNL1        0.2189
      2 O          23.5397   70.5354   -3.2130 O.3     1  UNL1       -0.4371
      3 O          21.1963   69.6149   -3.3905 O.2     1  UNL1       -0.5170
      4 O          21.8730   70.6325   -1.1820 O.3     1  UNL1       -0.3112
      5 C          22.7291   71.3655   -0.3038 C.3     1  UNL1        0.1811
      6 C          22.2190   73.7944    2.2994 C.3     1  UNL1        0.2383
      7 C          22.0437   74.5922    0.9822 C.3     1  UNL1        0.1895
      8 O          21.1163   75.6654    1.1555 O.3     1  UNL1       -0.3779
      9 C          21.4725   73.5177    0.0247 C.3     1  UNL1        0.1713
     10 C          21.8790   72.1808    0.6736 C.3     1  UNL1        0.1764
     11 O          22.6463   72.4910    1.8477 O.3     1  UNL1       -0.3308
     12 O          20.0500   73.6244   -0.0531 O.3     1  UNL1       -0.3794
     13 H          20.9733   76.1945    0.3591 H       1  UNL1        0.2106
     14 H          19.7367   74.4706   -0.3998 H       1  UNL1        0.2105
     15 N          23.2456   74.4107    3.1429 N.ar    1  UNL1       -0.2551
     16 C          24.2901   75.0364    2.5716 C.ar    1  UNL1        0.3323
     17 N          25.2483   75.6113    3.3223 N.ar    1  UNL1       -0.2743
     18 C          25.1727   75.5692    4.6681 C.ar    1  UNL1        0.2626
     19 C          24.0782   74.9147    5.2827 C.ar    1  UNL1        0.0795
     20 C          23.1298   74.3506    4.5056 C.ar    1  UNL1        0.0869
     21 O          24.3710   75.0823    1.3593 O.2     1  UNL1       -0.2464
     22 O          26.0391   76.0895    5.3487 O.2     1  UNL1       -0.2670
     23 H          25.9953   76.0573    2.8943 H       1  UNL1        0.1734
     24 O          21.4473   72.1250   -3.3044 O.3     1  UNL1       -0.2703
     25 P          21.3174   72.8121   -4.7549 P.3     1  UNL1        0.2208
     26 O          20.9279   74.3650   -4.5797 O.3     1  UNL1       -0.4371
     27 O          22.6086   72.7056   -5.4689 O.2     1  UNL1       -0.5170
     28 O          20.1714   72.0633   -5.6026 O.3     1  UNL1       -0.2865
     29 C          19.0483   72.7445   -6.1647 C.3     1  UNL1        0.2611
     30 C          17.7610   72.0107   -5.7810 C.3     1  UNL1        0.1582
     31 C          17.7925   70.5985   -6.3734 C.3     1  UNL1        0.1625
     32 C          17.9745   70.6968   -7.8905 C.3     1  UNL1        0.1686
     33 C          19.2540   71.4813   -8.1929 C.3     1  UNL1        0.1760
     34 O          16.5624   69.9312   -6.0822 O.3     1  UNL1       -0.3801
     35 O          16.8531   71.3718   -8.4633 O.3     1  UNL1       -0.3794
     36 O          19.1727   72.7734   -7.5880 O.3     1  UNL1       -0.3263
     37 H          16.5132   69.0294   -6.4277 H       1  UNL1        0.2105
     38 H          16.9017   71.4707   -9.4245 H       1  UNL1        0.2105
     39 C          16.4687   72.0927   -3.7168 C.2     1  UNL1        0.2231
     40 C          16.3656   72.0070   -2.2166 C.3     1  UNL1        0.0946
     41 N          17.6616   71.9275   -4.3217 N.am    1  UNL1       -0.2994
     42 O          15.4774   72.3106   -4.3816 O.2     1  UNL1       -0.2751
     43 H          18.4545   71.7542   -3.7904 H       1  UNL1        0.1496
     44 C          19.4116   71.6355   -9.7067 C.3     1  UNL1        0.1693
     45 O          18.7683   70.5435  -10.3671 O.3     1  UNL1       -0.3794
     46 H          18.8284   70.5759  -11.3316 H       1  UNL1        0.2105
@<TRIPOS>BOND
     1    29    30    1
     2    30    41    1
     3    30    31    1
     4    31    34    1
     5    31    32    1
     6    32    35    1
     7    32    33    1
     8    33    36    1
     9    33    44    1
    10    39    40    1
    11    39    42    2
    12    39    41   am
    13    41    43    1
    14    29    28    1
    15    34    37    1
    16    35    38    1
    17    29    36    1
    18    44    45    1
    19    45    46    1
    20    15     6    1
    21    15    16   ar
    22    16    21    2
    23    16    17   ar
    24    17    23    1
    25    17    18   ar
    26    18    19   ar
    27    19    20   ar
    28    15    20   ar
    29    18    22    2
    30     6     7    1
    31     6    11    1
    32     7     9    1
    33     7     8    1
    34     8    13    1
    35     9    10    1
    36     9    12    1
    37    10     5    1
    38    10    11    1
    39    12    14    1
    40     5     4    1
    41     4     1    1
    42     1     2    1
    43     1    24    1
    44     1     3    2
    45    24    25    1
    46    28    25    1
    47    25    26    1
    48    25    27    2
@<TRIPOS>MOLECULE
UD2
 46 48 0 0 0
SMALL
GASTEIGER

@<TRIPOS>ATOM
      1 P          23.2865   73.0159   -3.0862 P.3     1  UNL1        0.2189
      2 O          23.4524   71.4273   -3.2864 O.3     1  UNL1       -0.4371
      3 O          24.4656   73.7105   -3.6485 O.2     1  UNL1       -0.5170
      4 O          21.9567   73.5162   -3.8444 O.3     1  UNL1       -0.3112
      5 C          21.9581   74.5857   -4.7918 C.3     1  UNL1        0.1811
      6 C          20.2035   72.7346   -7.3279 C.3     1  UNL1        0.2383
      7 C          19.7143   74.1948   -7.5025 C.3     1  UNL1        0.1895
      8 O          19.3909   74.4645   -8.8680 O.3     1  UNL1       -0.3779
      9 C          20.9539   75.0087   -7.0573 C.3     1  UNL1        0.1713
     10 C          21.7664   74.0188   -6.2007 C.3     1  UNL1        0.1764
     11 O          21.0186   72.7940   -6.1371 O.3     1  UNL1       -0.3308
     12 O          21.7115   75.4258   -8.1943 O.3     1  UNL1       -0.3794
     13 H          19.0792   75.3655   -9.0281 H       1  UNL1        0.2106
     14 H          21.2280   76.0041   -8.7995 H       1  UNL1        0.2105
     15 N          19.0684   71.8301   -7.1319 N.ar    1  UNL1       -0.2551
     16 C          18.5103   71.2214   -8.1934 C.ar    1  UNL1        0.3323
     17 N          17.4660   70.3854   -8.0428 N.ar    1  UNL1       -0.2743
     18 C          16.9619   70.1433   -6.8156 C.ar    1  UNL1        0.2626
     19 C          17.5403   70.7765   -5.6893 C.ar    1  UNL1        0.0795
     20 C          18.5892   71.6065   -5.8692 C.ar    1  UNL1        0.0869
     21 O          18.9546   71.4302   -9.3058 O.2     1  UNL1       -0.2464
     22 O          16.0170   69.3865   -6.6778 O.2     1  UNL1       -0.2670
     23 H          17.0748   69.9557   -8.8189 H       1  UNL1        0.1734
     24 O          23.1654   73.3494   -1.5154 O.3     1  UNL1       -0.2703
     25 P          23.4378   74.6650   -0.6276 P.3     1  UNL1        0.2208
     26 O          25.0187   74.9706   -0.5933 O.3     1  UNL1       -0.4371
     27 O          22.7260   75.8176   -1.2219 O.2     1  UNL1       -0.5170
     28 O          22.9055   74.4200    0.8721 O.3     1  UNL1       -0.2865
     29 C          23.4613   73.4342    1.7442 C.3     1  UNL1        0.2611
     30 C          22.3800   72.4200    2.1246 C.3     1  UNL1        0.1582
     31 C          21.2632   73.1392    2.8874 C.3     1  UNL1        0.1625
     32 C          21.8628   73.8354    4.1123 C.3     1  UNL1        0.1686
     33 C          22.9643   74.7953    3.6552 C.3     1  UNL1        0.1760
     34 O          20.2845   72.1872    3.3105 O.3     1  UNL1       -0.3801
     35 O          22.4167   72.8572    4.9942 O.3     1  UNL1       -0.3794
     36 O          23.9551   74.0683    2.9259 O.3     1  UNL1       -0.3263
     37 H          19.5460   72.5742    3.8004 H       1  UNL1        0.2105
     38 H          22.8157   73.2283    5.7936 H       1  UNL1        0.2105
     39 C          22.1690   70.5515    0.5748 C.2     1  UNL1        0.2231
     40 C          21.6043   69.9256   -0.6734 C.3     1  UNL1        0.0946
     41 N          21.8304   71.8120    0.9101 N.am    1  UNL1       -0.2994
     42 O          22.9294   69.9207    1.2792 O.2     1  UNL1       -0.2751
     43 H          21.2233   72.3170    0.3467 H       1  UNL1        0.1496
     44 C          23.6092   75.4507    4.8779 C.3     1  UNL1        0.1693
     45 O          24.6888   74.6371    5.3415 O.3     1  UNL1       -0.3794
     46 H          25.1449   74.9922    6.1167 H       1  UNL1        0.2105
@<TRIPOS>BOND
     1    29    30    1
     2    30    41    1
     3    30    31    1
     4    31    34    1
     5    31    32    1
     6    32    35    1
     7    32    33    1
     8    33    36    1
     9    33    44    1
    10    39    40    1
    11    39    42    2
    12    39    41   am
    13    41    43    1
    14    29    28    1
    15    34    37    1
    16    35    38    1
    17    29    36    1
    18    44    45    1
    19    45    46    1
    20    15     6    1
    21    15    16   ar
    22    16    21    2
    23    16    17   ar
    24    17    23    1
    25    17    18   ar
    26    18    19   ar
    27    19    20   ar
    28    15    20   ar
    29    18    22    2
    30     6     7    1
    31     6    11    1
    32     7     9    1
    33     7     8    1
    34     8    13    1
    35     9    10    1
    36     9    12    1
    37    10     5    1
    38    10    11    1
    39    12    14    1
    40     5     4    1
    41     4     1    1
    42     1     2    1
    43     1    24    1
    44     1     3    2
    45    24    25    1
    46    28    25    1
    47    25    26    1
    48    25    27    2
@<TRIPOS>MOLECULE
UD2
 46 48 0 0 0
SMALL
GASTEIGER

@<TRIPOS>ATOM
      1 P          20.1027   70.4213   -2.7829 P.3     1  UNL1        0.2189
      2 O          19.7234   68.8594   -2.6945 O.3     1  UNL1       -0.4371
      3 O          21.2033   70.6081   -3.7539 O.2     1  UNL1       -0.5170
      4 O          18.8145   71.2598   -3.2638 O.3     1  UNL1       -0.3112
      5 C          17.6861   70.6550   -3.8981 C.3     1  UNL1        0.1811
      6 C          18.5580   72.3608   -6.9422 C.3     1  UNL1        0.2383
      7 C          18.3683   70.8818   -7.3649 C.3     1  UNL1        0.1895
      8 O          17.8954   70.7924   -8.7103 O.3     1  UNL1       -0.3779
      9 C          17.2898   70.3940   -6.3667 C.3     1  UNL1        0.1713
     10 C          17.3751   71.3969   -5.2004 C.3     1  UNL1        0.1764
     11 O          18.4357   72.3170   -5.5039 O.3     1  UNL1       -0.3308
     12 O          15.9956   70.4370   -6.9702 O.3     1  UNL1       -0.3794
     13 H          17.7617   69.8868   -9.0211 H       1  UNL1        0.2106
     14 H          15.9037   69.8682   -7.7464 H       1  UNL1        0.2105
     15 N          19.8846   72.8428   -7.3331 N.ar    1  UNL1       -0.2551
     16 C          20.0334   73.5264   -8.4818 C.ar    1  UNL1        0.3323
     17 N          21.2409   73.9810   -8.8660 N.ar    1  UNL1       -0.2743
     18 C          22.3262   73.7574   -8.0975 C.ar    1  UNL1        0.2626
     19 C          22.1839   73.0402   -6.8853 C.ar    1  UNL1        0.0795
     20 C          20.9608   72.5997   -6.5227 C.ar    1  UNL1        0.0869
     21 O          19.0635   73.7355   -9.1846 O.2     1  UNL1       -0.2464
     22 O          23.4196   74.1688   -8.4439 O.2     1  UNL1       -0.2670
     23 H          21.3307   74.4711   -9.6978 H       1  UNL1        0.1734
     24 O          20.5712   70.9431   -1.3332 O.3     1  UNL1       -0.2703
     25 P          21.8675   70.6788   -0.4153 P.3     1  UNL1        0.2208
     26 O          21.5800   69.4418    0.5752 O.3     1  UNL1       -0.4371
     27 O          23.0264   70.3603   -1.2777 O.2     1  UNL1       -0.5170
     28 O          22.1891   71.9972    0.4513 O.3     1  UNL1       -0.2865
     29 C          21.1710   72.8502    0.9778 C.3     1  UNL1        0.2611
     30 C          21.4929   74.3055    0.6298 C.3     1  UNL1        0.1582
     31 C          22.8173   74.6988    1.2915 C.3     1  UNL1        0.1625
     32 C          22.7075   74.4739    2.8020 C.3     1  UNL1        0.1686
     33 C          22.3387   73.0117    3.0664 C.3     1  UNL1        0.1760
     34 O          23.0891   76.0780    1.0325 O.3     1  UNL1       -0.3801
     35 O          21.6953   75.3270    3.3396 O.3     1  UNL1       -0.3794
     36 O          21.1140   72.7026    2.3981 O.3     1  UNL1       -0.3263
     37 H          23.9152   76.3956    1.4222 H       1  UNL1        0.2105
     38 H          21.5704   75.2368    4.2947 H       1  UNL1        0.2105
     39 C          22.8126   74.3116   -1.4187 C.2     1  UNL1        0.2231
     40 C          22.9348   74.4560   -2.9129 C.3     1  UNL1        0.0946
     41 N          21.6110   74.4464   -0.8238 N.am    1  UNL1       -0.2994
     42 O          23.7965   74.0738   -0.7496 O.2     1  UNL1       -0.2751
     43 H          20.8243   74.6376   -1.3582 H       1  UNL1        0.1496
     44 C          22.1685   72.7929    4.5709 C.3     1  UNL1        0.1693
     45 O          20.8036   73.0121    4.9335 O.3     1  UNL1       -0.3794
     46 H          20.6219   72.8907    5.8754 H       1  UNL1        0.2105
@<TRIPOS>BOND
     1    29    30    1
     2    30    41    1
     3    30    31    1
     4    31    34    1
     5    31    32    1
     6    32    35    1
     7    32    33    1
     8    33    36    1
     9    33    44    1
    10    39    40    1
    11    39    42    2
    12    39    41   am
    13    41    43    1
    14    29    28    1
    15    34    37    1
    16    35    38    1
    17    29    36    1
    18    44    45    1
    19    45    46    1
    20    15     6    1
    21    15    16   ar
    22    16    21    2
    23    16    17   ar
    24    17    23    1
    25    17    18   ar
    26    18    19   ar
    27    19    20   ar
    28    15    20   ar
    29    18    22    2
    30     6     7    1
    31     6    11    1
    32     7     9    1
    33     7     8    1
    34     8    13    1
    35     9    10    1
    36     9    12    1
    37    10     5    1
    38    10    11    1
    39    12    14    1
    40     5     4    1
    41     4     1    1
    42     1     2    1
    43     1    24    1
    44     1     3    2
    45    24    25    1
    46    28    25    1
    47    25    26    1
    48    25    27    2
@<TRIPOS>MOLECULE
UD2
 46 48 0 0 0
SMALL
GASTEIGER

@<TRIPOS>ATOM
      1 P          20.4913   70.0187   -2.4787 P.3     1  UNL1        0.2189
      2 O          20.2079   68.6345   -3.2501 O.3     1  UNL1       -0.4371
      3 O          19.2100   70.7121   -2.2213 O.2     1  UNL1       -0.5170
      4 O          21.2262   69.7119   -1.0788 O.3     1  UNL1       -0.3112
      5 C          22.2440   70.5541   -0.5345 C.3     1  UNL1        0.1811
      6 C          21.4584   73.4524    1.4452 C.3     1  UNL1        0.2383
      7 C          22.8483   73.7631    0.8340 C.3     1  UNL1        0.1895
      8 O          23.0120   75.1674    0.6266 O.3     1  UNL1       -0.3779
      9 C          22.7856   73.0089   -0.5168 C.3     1  UNL1        0.1713
     10 C          21.6777   71.9584   -0.3104 C.3     1  UNL1        0.1764
     11 O          21.2123   72.0876    1.0424 O.3     1  UNL1       -0.3308
     12 O          22.4353   73.9050   -1.5728 O.3     1  UNL1       -0.3794
     13 H          23.8664   75.4121    0.2462 H       1  UNL1        0.2106
     14 H          23.0694   74.6220   -1.7077 H       1  UNL1        0.2105
     15 N          21.5012   73.5601    2.9052 N.ar    1  UNL1       -0.2551
     16 C          21.9902   72.5414    3.6345 C.ar    1  UNL1        0.3323
     17 N          22.0414   72.6130    4.9778 N.ar    1  UNL1       -0.2743
     18 C          21.6013   73.7165    5.6159 C.ar    1  UNL1        0.2626
     19 C          21.0851   74.7968    4.8607 C.ar    1  UNL1        0.0795
     20 C          21.0496   74.6995    3.5150 C.ar    1  UNL1        0.0869
     21 O          22.3906   71.5403    3.0725 O.2     1  UNL1       -0.2464
     22 O          21.6475   73.7828    6.8317 O.2     1  UNL1       -0.2670
     23 H          22.3958   71.8689    5.4885 H       1  UNL1        0.1734
     24 O          21.4361   70.9554   -3.3860 O.3     1  UNL1       -0.2703
     25 P          21.1559   72.1525   -4.4259 P.3     1  UNL1        0.2208
     26 O          20.4966   73.3974   -3.6453 O.3     1  UNL1       -0.4371
     27 O          22.4308   72.5779   -5.0440 O.2     1  UNL1       -0.5170
     28 O          20.1471   71.6422   -5.5724 O.3     1  UNL1       -0.2865
     29 C          19.1580   72.4827   -6.1694 C.3     1  UNL1        0.2611
     30 C          17.7638   71.9371   -5.8512 C.3     1  UNL1        0.1582
     31 C          17.6192   70.5409   -6.4643 C.3     1  UNL1        0.1625
     32 C          17.8787   70.6272   -7.9708 C.3     1  UNL1        0.1686
     33 C          19.2689   71.2234   -8.2074 C.3     1  UNL1        0.1760
     34 O          16.2950   70.0538   -6.2350 O.3     1  UNL1       -0.3801
     35 O          16.8909   71.4615   -8.5787 O.3     1  UNL1       -0.3794
     36 O          19.3467   72.5078   -7.5858 O.3     1  UNL1       -0.3263
     37 H          16.1327   69.1718   -6.5967 H       1  UNL1        0.2105
     38 H          16.9946   71.5620   -9.5353 H       1  UNL1        0.2105
     39 C          16.3920   72.1272   -3.8463 C.2     1  UNL1        0.2231
     40 C          16.2130   72.0422   -2.3532 C.3     1  UNL1        0.0946
     41 N          17.5905   71.8545   -4.3987 N.am    1  UNL1       -0.2994
     42 O          15.4568   72.4415   -4.5526 O.2     1  UNL1       -0.2751
     43 H          18.3387   71.6041   -3.8343 H       1  UNL1        0.1496
     44 C          19.5123   71.3685   -9.7108 C.3     1  UNL1        0.1693
     45 O          18.7769   70.3637  -10.4122 O.3     1  UNL1       -0.3794
     46 H          18.8843   70.3955  -11.3727 H       1  UNL1        0.2105
@<TRIPOS>BOND
     1    29    30    1
     2    30    41    1
     3    30    31    1
     4    31    34    1
     5    31    32    1
     6    32    35    1
     7    32    33    1
     8    33    36    1
     9    33    44    1
    10    39    40    1
    11    39    42    2
    12    39    41   am
    13    41    43    1
    14    29    28    1
    15    34    37    1
    16    35    38    1
    17    29    36    1
    18    44    45    1
    19    45    46    1
    20    15     6    1
    21    15    16   ar
    22    16    21    2
    23    16    17   ar
    24    17    23    1
    25    17    18   ar
    26    18    19   ar
    27    19    20   ar
    28    15    20   ar
    29    18    22    2
    30     6     7    1
    31     6    11    1
    32     7     9    1
    33     7     8    1
    34     8    13    1
    35     9    10    1
    36     9    12    1
    37    10     5    1
    38    10    11    1
    39    12    14    1
    40     5     4    1
    41     4     1    1
    42     1     2    1
    43     1    24    1
    44     1     3    2
    45    24    25    1
    46    28    25    1
    47    25    26    1
    48    25    27    2
